running

-------------------------------------------------------------------------
|    ___ _   _ ___                                                      |
|   / __| | | |_  )   Release 7.0.8 "Blackbird"                         |
|   \__ \ |_| |/ /                                                      |
|   |___/\___//___|   Suite (Computational Fluid Dynamics Code)         |
|                                                                       |
-------------------------------------------------------------------------
| SU2 Project Website: https://su2code.github.io                        |
|                                                                       |
| The SU2 Project is maintained by the SU2 Foundation                   |
| (http://su2foundation.org)                                            |
-------------------------------------------------------------------------
| Copyright 2012-2020, SU2 Contributors                                 |
|                                                                       |
| SU2 is free software; you can redistribute it and/or                  |
| modify it under the terms of the GNU Lesser General Public            |
| License as published by the Free Software Foundation; either          |
| version 2.1 of the License, or (at your option) any later version.    |
|                                                                       |
| SU2 is distributed in the hope that it will be useful,                |
| but WITHOUT ANY WARRANTY; without even the implied warranty of        |
| MERCHANTABILITY or FITNESS FOR A PARTICULAR PURPOSE. See the GNU      |
| Lesser General Public License for more details.                       |
|                                                                       |
| You should have received a copy of the GNU Lesser General Public      |
| License along with SU2. If not, see <http://www.gnu.org/licenses/>.   |
-------------------------------------------------------------------------

Parsing config file for zone 0

----------------- Physical Case Definition ( Zone 0 ) -------------------
Compressible RANS equations.
Turbulence model: Spalart Allmaras
Hybrid RANS/LES: No Hybrid RANS/LES
Mach number: 0.2.
Angle of attack (AoA): 0 deg, and angle of sideslip (AoS): 0 deg.
Reynolds number: 5e+06. Reference length 1.
No restart solution, use the values at infinity (freestream).
Non-Dimensional simulation (P=1.0, Rho=1.0, T=1.0 at the farfield).
The reference area is 2 m^2.
The semi-span will be computed using the max y(3D) value.
The reference length is 1 m.
Reference origin for moment evaluation is (0, 0, 0).
Surface(s) where the force coefficients are evaluated: wall.

Surface(s) plotted in the output file: wall.
Input mesh file name: flatplate_turb_L3_137x97.su2

--------------- Space Numerical Integration ( Zone 0 ) ------------------
Roe (with entropy fix = 0.001) solver for the flow inviscid terms.
Standard Roe without low-dissipation function.
Second order integration in space, with slope limiter.
No slope-limiting method. 
Scalar upwind solver for the turbulence model.
First order integration in space.
Average of gradients with correction (viscous flow terms).
Average of gradients with correction (viscous turbulence terms).
Gradient for upwind reconstruction: Green-Gauss.
Gradient for viscous and source terms: Green-Gauss.

--------------- Time Numerical Integration  ( Zone 0 ) ------------------
Local time stepping (steady state simulation).
Euler implicit method for the flow equations.
FGMRES is used for solving the linear system.
Using a ILU(0) preconditioning.
Convergence criteria of the linear solver: 1e-10.
Max number of linear iterations: 10.
CFL adaptation. Factor down: 0.1, factor up: 1.2,
                lower limit: 10, upper limit: 500.
Courant-Friedrichs-Lewy number:       10
Euler implicit time integration for the turbulence model.

------------------ Convergence Criteria  ( Zone 0 ) ---------------------
Maximum number of solver subiterations: 99999.
Begin convergence monitoring at iteration 10.
Residual minimum value: 1e-13.
Cauchy series min. value: 1e-06.
Number of Cauchy elements: 100.
Begin windowed time average at iteration 0.

-------------------- Output Information ( Zone 0 ) ----------------------
Writing solution files every 250 iterations.
Writing the convergence history file every 1 inner iterations.
Writing the screen convergence history every 1 inner iterations.
The tabular file format is Tecplot (.dat).
Convergence history file name: history.
Forces breakdown file name: forces_breakdown.dat.
Surface file name: surface.
Volume file name: vol_solution.
Restart file name: restart.dat.

------------- Config File Boundary Information ( Zone 0 ) ---------------
+-----------------------------------------------------------------------+
|                        Marker Type|                        Marker Name|
+-----------------------------------------------------------------------+
|                     Symmetry plane|                           symmetry|
+-----------------------------------------------------------------------+
|                     Inlet boundary|                              inlet|
+-----------------------------------------------------------------------+
|                    Outlet boundary|                             outlet|
|                                   |                           farfield|
+-----------------------------------------------------------------------+
|                     Heat flux wall|                               wall|
+-----------------------------------------------------------------------+

-------------------- Output Preprocessing ( Zone 0 ) --------------------
Screen output fields: INNER_ITER, WALL_TIME, RMS_DENSITY, RMS_ENERGY, LIFT, DRAG, AVG_CFL, REL_RMS_DENSITY
History output group(s): ITER, AERO_COEFF, RMS_RES, REL_RMS_RES, CFL_NUMBER
Convergence field(s): RMS_DENSITY
Warning: No (valid) fields chosen for time convergence monitoring. Time convergence monitoring inactive.
Volume output fields: COORDINATES, SOLUTION, PRIMITIVE

------------------- Geometry Preprocessing ( Zone 0 ) -------------------
Two dimensional problem.
13289 grid points before partitioning.
13056 volume elements before partitioning.
5 surface markers.
136 boundary elements in index 0 (Marker = farfield).
96 boundary elements in index 1 (Marker = inlet).
96 boundary elements in index 2 (Marker = outlet).
24 boundary elements in index 3 (Marker = symmetry).
112 boundary elements in index 4 (Marker = wall).
Executing the partitioning functions.
Building the graph adjacency structure.
Calling ParMETIS... graph partitioning complete (282 edge cuts).
Distributing ParMETIS coloring.
Rebalancing vertices.
Rebalancing volume element connectivity.
Rebalancing markers and surface elements.
13857 vertices including ghost points. 
13337 interior elements including halo cells. 
13337 quadrilaterals.
Establishing MPI communication patterns.
Setting point connectivity.
Renumbering points (Reverse Cuthill McKee Ordering).
Recomputing point connectivity.
Setting element connectivity.
Checking the numerical grid orientation.
All volume elements are correctly orientend.
All surface elements are correctly orientend.
Identifying edges and vertices.
Computing centers of gravity.
Setting the control volume structure.
Area of the computational grid: 2.34299.
Searching for the closest normal neighbors to the surfaces.
Storing a mapping from global to local point index.
Compute the surface curvature.
Max K: 49.9164. Mean K: 0.708388. Standard deviation K: 4.72131.
Checking for periodicity.
Computing mesh quality statistics for the dual control volumes.
+--------------------------------------------------------------+
|           Mesh Quality Metric|        Minimum|        Maximum|
+--------------------------------------------------------------+
|    Orthogonality Angle (deg.)|             90|             90|
|     CV Face Area Aspect Ratio|        1.00018|        42858.7|
|           CV Sub-Volume Ratio|              1|        1.28235|
+--------------------------------------------------------------+
Finding max control volume width.
Communicating number of neighbors.
Wetted area = 0.0292826 m.
Area projection in the x-plane = 0 m, y-plane = 0 m.
Max. coordinate in the x-direction = 2 m, y-direction = 0 m.
Min. coordinate in the x-direction = 0 m, y-direction = 0 m.
Checking if Euler & Symmetry markers are straight/plane:
Boundary marker symmetry is a single straight.
Computing wall distances.

-------------------- Solver Preprocessing ( Zone 0 ) --------------------
Viscous flow: Computing pressure using the ideal gas law
based on the free-stream temperature and a density computed
from the Reynolds number.
Force coefficients computed using free-stream values.

-- Models:
+------------------------------------------------------------------------------+
|          Viscosity Model|        Conductivity Model|              Fluid Model|
+------------------------------------------------------------------------------+
|               SUTHERLAND|          CONSTANT_PRANDTL|             STANDARD_AIR|
+------------------------------------------------------------------------------+
-- Fluid properties:
+------------------------------------------------------------------------------+
|                  Name|    Dim. value|    Ref. value|      Unit|Non-dim. value|
+------------------------------------------------------------------------------+
|        Ref. Viscosity|     1.716e-05|       390.021|   N.s/m^2|   4.39976e-08|
|      Sutherland Temp.|        273.15|           300|         K|        0.9105|
|     Sutherland Const.|         110.4|           300|         K|         0.368|
+------------------------------------------------------------------------------+
|        Prandtl (Lam.)|             -|             -|         -|          0.72|
|       Prandtl (Turb.)|             -|             -|         -|           0.9|
+------------------------------------------------------------------------------+
|          Gas Constant|       287.058|       287.058|  N.m/kg.K|             1|
|      Spec. Heat Ratio|             -|             -|         -|           1.4|
+------------------------------------------------------------------------------+
-- Initial and free-stream conditions:
+------------------------------------------------------------------------------+
|                  Name|    Dim. value|    Ref. value|      Unit|Non-dim. value|
+------------------------------------------------------------------------------+
|       Static Pressure|        114455|        114455|        Pa|             1|
|               Density|       1.32905|       1.32905|    kg/m^3|             1|
|           Temperature|           300|           300|         K|             1|
|          Total Energy|        217705|       86117.4|   m^2/s^2|         2.528|
|            Velocity-X|       69.4448|       293.458|       m/s|      0.236643|
|            Velocity-Y|             0|       293.458|       m/s|             0|
|    Velocity Magnitude|       69.4448|       293.458|       m/s|      0.236643|
+------------------------------------------------------------------------------+
|             Viscosity|   1.84592e-05|       390.021|   N.s/m^2|   4.73286e-08|
|          Conductivity|             -|        111959|   W/m^2.K|             -|
|     Turb. Kin. Energy|       18.0847|       86117.4|   m^2/s^2|       0.00021|
|     Spec. Dissipation|        130209|       293.458|       1/s|       443.706|
+------------------------------------------------------------------------------+
|           Mach Number|             -|             -|         -|           0.2|
|       Reynolds Number|             -|             -|         -|         5e+06|
+------------------------------------------------------------------------------+
Initialize Jacobian structure (Navier-Stokes). MG level: 0.
Initialize Jacobian structure (SA model).

------------------- Numerics Preprocessing ( Zone 0 ) -------------------

----------------- Integration Preprocessing ( Zone 0 ) ------------------

------------------- Iteration Preprocessing ( Zone 0 ) ------------------
Euler/Navier-Stokes/RANS fluid iteration.

------------------------------ Begin Solver -----------------------------

Simulation Run using the Single-zone Driver
+-------------------------------------------------------------------------------------------------------+
|  Inner_Iter|   Time(sec)|    rms[Rho]|   rms[RhoE]|          CL|          CD|     Avg CFL| relrms[Rho]|
+-------------------------------------------------------------------------------------------------------+
|           0|  2.5385e-02|   -8.112088|   -7.577443|   -0.400000|    0.201250|  1.2000e+01|    0.000000|
|           1|  2.5007e-02|   -4.956249|   -4.392305|   -0.254133|    0.180808|  1.4400e+01|    0.000000|
|           2|  2.4743e-02|   -5.214169|   -4.652672|   -0.071706|    0.161485|  1.7280e+01|   -0.257920|
|           3|  2.4609e-02|   -5.393584|   -4.841544|    0.031146|    0.143782|  2.0736e+01|   -0.437335|
|           4|  2.4490e-02|   -5.951665|   -5.406132|    0.052621|    0.127883|  2.4883e+01|   -0.995416|
|           5|  2.4422e-02|   -5.999967|   -5.433130|    0.042867|    0.113690|  2.9860e+01|   -1.043718|
|           6|  2.4317e-02|   -6.023572|   -5.455286|    0.033081|    0.101132|  3.5832e+01|   -1.067323|
|           7|  2.4266e-02|   -6.163514|   -5.597311|    0.027769|    0.090110|  4.2998e+01|   -1.207265|
|           8|  2.4218e-02|   -6.289370|   -5.726316|    0.023872|    0.080473|  5.1598e+01|   -1.333121|
|           9|  2.4162e-02|   -6.358555|   -5.796690|    0.020463|    0.072045|  6.1917e+01|   -1.402306|
|          10|  2.4168e-02|   -6.419710|   -5.859355|    0.018132|    0.064650|  7.4301e+01|   -1.463461|
|          11|  2.4143e-02|   -6.493994|   -5.934975|    0.017109|    0.058131|  8.9161e+01|   -1.537745|
|          12|  2.4097e-02|   -6.561457|   -6.003679|    0.016784|    0.052355|  1.0699e+02|   -1.605208|
|          13|  2.4080e-02|   -6.622828|   -6.065810|    0.016040|    0.047213|  1.2839e+02|   -1.666579|
|          14|  2.4081e-02|   -6.688666|   -6.131665|    0.014021|    0.042614|  1.5407e+02|   -1.732417|
|          15|  2.4101e-02|   -6.757492|   -6.198473|    0.010717|    0.038485|  1.8488e+02|   -1.801242|
|          16|  2.4090e-02|   -6.842930|   -6.280272|    0.006987|    0.034763|  2.2186e+02|   -1.886681|
|          17|  2.4074e-02|   -6.928986|   -6.364830|    0.004092|    0.031398|  2.6623e+02|   -1.972737|
|          18|  2.4045e-02|   -6.987599|   -6.424662|    0.002747|    0.028348|  3.1948e+02|   -2.031350|
|          19|  2.4024e-02|   -7.049074|   -6.485214|    0.002558|    0.025577|  3.8338e+02|   -2.092825|
|          20|  2.4035e-02|   -7.113865|   -6.548512|    0.002554|    0.023058|  4.6005e+02|   -2.157616|
|          21|  2.4093e-02|   -7.174925|   -6.609418|    0.002200|    0.020765|  5.0000e+02|   -2.218676|
|          22|  2.4123e-02|   -7.231546|   -6.666291|    0.001685|    0.018835|  5.0000e+02|   -2.275297|
|          23|  2.4119e-02|   -7.314714|   -6.749271|    0.001304|    0.017290|  5.0000e+02|   -2.358465|
|          24|  2.4119e-02|   -7.410750|   -6.844683|    0.001068|    0.016022|  5.0000e+02|   -2.454501|
|          25|  2.4123e-02|   -7.489274|   -6.922796|    0.000910|    0.014959|  5.0000e+02|   -2.533025|
|          26|  2.4103e-02|   -7.556666|   -6.990144|    0.000793|    0.014054|  5.0000e+02|   -2.600417|
|          27|  2.4112e-02|   -7.615923|   -7.049662|    0.000701|    0.013272|  5.0000e+02|   -2.659674|
|          28|  2.4090e-02|   -7.668505|   -7.102665|    0.000627|    0.012588|  5.0000e+02|   -2.712256|
|          29|  2.4082e-02|   -7.715982|   -7.150605|    0.000567|    0.011984|  5.0000e+02|   -2.759733|
|          30|  2.4078e-02|   -7.759024|   -7.194179|    0.000518|    0.011447|  5.0000e+02|   -2.802775|
|          31|  2.4069e-02|   -7.797967|   -7.233713|    0.000476|    0.010965|  5.0000e+02|   -2.841718|
|          32|  2.4075e-02|   -7.833000|   -7.269394|    0.000438|    0.010531|  5.0000e+02|   -2.876751|
|          33|  2.4079e-02|   -7.864402|   -7.301511|    0.000404|    0.010136|  5.0000e+02|   -2.908153|
|          34|  2.4089e-02|   -7.892685|   -7.330566|    0.000372|    0.009776|  5.0000e+02|   -2.936436|
|          35|  2.4246e-02|   -7.918492|   -7.357171|    0.000343|    0.009447|  5.0000e+02|   -2.962243|
|          36|  2.4243e-02|   -7.942508|   -7.381960|    0.000316|    0.009143|  5.0000e+02|   -2.986259|
|          37|  2.4243e-02|   -7.965393|   -7.405551|    0.000291|    0.008863|  5.0000e+02|   -3.009144|
|          38|  2.4221e-02|   -7.987658|   -7.428426|    0.000268|    0.008604|  5.0000e+02|   -3.031409|
|          39|  2.4222e-02|   -8.009583|   -7.450860|    0.000247|    0.008364|  5.0000e+02|   -3.053334|
|          40|  2.4223e-02|   -8.031181|   -7.472887|    0.000228|    0.008140|  5.0000e+02|   -3.074932|
|          41|  2.4217e-02|   -8.052185|   -7.494286|    0.000213|    0.007931|  5.0000e+02|   -3.095936|
|          42|  2.4210e-02|   -8.072170|   -7.514680|    0.000199|    0.007736|  5.0000e+02|   -3.115921|
|          43|  2.4203e-02|   -8.090787|   -7.533763|    0.000189|    0.007553|  5.0000e+02|   -3.134538|
|          44|  2.4198e-02|   -8.107933|   -7.551450|    0.000181|    0.007381|  5.0000e+02|   -3.151684|
|          45|  2.4198e-02|   -8.123804|   -7.567927|    0.000175|    0.007220|  5.0000e+02|   -3.167555|
|          46|  2.4206e-02|   -8.138846|   -7.583611|    0.000172|    0.007068|  5.0000e+02|   -3.182597|
|          47|  2.4204e-02|   -8.153590|   -7.599000|    0.000169|    0.006926|  5.0000e+02|   -3.197340|
|          48|  2.4199e-02|   -8.168426|   -7.614467|    0.000168|    0.006791|  5.0000e+02|   -3.212177|
|          49|  2.4192e-02|   -8.183428|   -7.630085|    0.000168|    0.006664|  5.0000e+02|   -3.227179|
|          50|  2.4197e-02|   -8.198439|   -7.645718|    0.000168|    0.006545|  5.0000e+02|   -3.242189|
|          51|  2.4195e-02|   -8.213094|   -7.661032|    0.000167|    0.006432|  5.0000e+02|   -3.256845|
|          52|  2.4193e-02|   -8.226816|   -7.675485|    0.000167|    0.006325|  5.0000e+02|   -3.270567|
|          53|  2.4185e-02|   -8.239102|   -7.688602|    0.000166|    0.006225|  5.0000e+02|   -3.282853|
|          54|  2.4176e-02|   -8.249711|   -7.700143|    0.000165|    0.006130|  5.0000e+02|   -3.293462|
|          55|  2.4176e-02|   -8.258747|   -7.710186|    0.000164|    0.006040|  5.0000e+02|   -3.302498|
|          56|  2.4181e-02|   -8.266583|   -7.719079|    0.000161|    0.005956|  5.0000e+02|   -3.310334|
|          57|  2.4179e-02|   -8.273728|   -7.727291|    0.000159|    0.005876|  5.0000e+02|   -3.317479|
|          58|  2.4175e-02|   -8.280706|   -7.735317|    0.000156|    0.005801|  5.0000e+02|   -3.324456|
|          59|  2.4165e-02|   -8.287861|   -7.743507|    0.000154|    0.005730|  5.0000e+02|   -3.331612|
|          60|  2.4164e-02|   -8.295284|   -7.751939|    0.000151|    0.005664|  5.0000e+02|   -3.339035|
|          61|  2.4164e-02|   -8.302879|   -7.760513|    0.000150|    0.005601|  5.0000e+02|   -3.346630|
|          62|  2.4158e-02|   -8.310345|   -7.768951|    0.000149|    0.005542|  5.0000e+02|   -3.354096|
|          63|  2.4151e-02|   -8.317326|   -7.776872|    0.000149|    0.005487|  5.0000e+02|   -3.361077|
|          64|  2.4144e-02|   -8.323667|   -7.784108|    0.000150|    0.005435|  5.0000e+02|   -3.367418|
|          65|  2.4146e-02|   -8.329328|   -7.790610|    0.000153|    0.005386|  5.0000e+02|   -3.373079|
|          66|  2.4142e-02|   -8.334502|   -7.796551|    0.000156|    0.005340|  5.0000e+02|   -3.378253|
|          67|  2.4138e-02|   -8.339541|   -7.802285|    0.000160|    0.005297|  5.0000e+02|   -3.383292|
|          68|  2.4134e-02|   -8.344792|   -7.808141|    0.000164|    0.005256|  5.0000e+02|   -3.388543|
|          69|  2.4128e-02|   -8.350573|   -7.814453|    0.000170|    0.005218|  5.0000e+02|   -3.394324|
|          70|  2.4125e-02|   -8.356949|   -7.821272|    0.000175|    0.005182|  5.0000e+02|   -3.400700|
|          71|  2.4124e-02|   -8.363913|   -7.828593|    0.000181|    0.005148|  5.0000e+02|   -3.407663|
|          72|  2.4120e-02|   -8.371219|   -7.836174|    0.000187|    0.005116|  5.0000e+02|   -3.414970|
|          73|  2.4117e-02|   -8.378563|   -7.843706|    0.000192|    0.005085|  5.0000e+02|   -3.422314|
|          74|  2.4112e-02|   -8.385596|   -7.850838|    0.000198|    0.005056|  5.0000e+02|   -3.429347|
|          75|  2.4113e-02|   -8.392057|   -7.857304|    0.000203|    0.005029|  5.0000e+02|   -3.435808|
|          76|  2.4114e-02|   -8.397826|   -7.862989|    0.000208|    0.005002|  5.0000e+02|   -3.441577|
|          77|  2.4115e-02|   -8.402955|   -7.867950|    0.000212|    0.004977|  5.0000e+02|   -3.446706|
|          78|  2.4113e-02|   -8.407612|   -7.872379|    0.000216|    0.004952|  5.0000e+02|   -3.451363|
|          79|  2.4116e-02|   -8.412028|   -7.876517|    0.000220|    0.004929|  5.0000e+02|   -3.455779|
|          80|  2.4116e-02|   -8.416402|   -7.880596|    0.000224|    0.004906|  5.0000e+02|   -3.460153|
|          81|  2.4114e-02|   -8.420846|   -7.884735|    0.000228|    0.004883|  5.0000e+02|   -3.464597|
|          82|  2.4113e-02|   -8.425372|   -7.888966|    0.000233|    0.004861|  5.0000e+02|   -3.469123|
|          83|  2.4109e-02|   -8.429875|   -7.893196|    0.000237|    0.004840|  5.0000e+02|   -3.473626|
|          84|  2.4102e-02|   -8.434226|   -7.897300|    0.000242|    0.004819|  5.0000e+02|   -3.477977|
|          85|  2.4102e-02|   -8.438278|   -7.901143|    0.000247|    0.004798|  5.0000e+02|   -3.482029|
|          86|  2.4099e-02|   -8.441976|   -7.904659|    0.000253|    0.004778|  5.0000e+02|   -3.485727|
|          87|  2.4100e-02|   -8.445335|   -7.907874|    0.000259|    0.004758|  5.0000e+02|   -3.489086|
|          88|  2.4096e-02|   -8.448450|   -7.910867|    0.000266|    0.004738|  5.0000e+02|   -3.492201|
|          89|  2.4095e-02|   -8.451476|   -7.913787|    0.000273|    0.004719|  5.0000e+02|   -3.495227|
|          90|  2.4094e-02|   -8.454528|   -7.916749|    0.000280|    0.004699|  5.0000e+02|   -3.498279|
|          91|  2.4093e-02|   -8.457694|   -7.919818|    0.000287|    0.004680|  5.0000e+02|   -3.501445|
|          92|  2.4090e-02|   -8.460960|   -7.922984|    0.000294|    0.004661|  5.0000e+02|   -3.504711|
|          93|  2.4086e-02|   -8.464206|   -7.926121|    0.000301|    0.004642|  5.0000e+02|   -3.507957|
|          94|  2.4085e-02|   -8.467261|   -7.929055|    0.000308|    0.004623|  5.0000e+02|   -3.511012|
|          95|  2.4082e-02|   -8.469888|   -7.931571|    0.000314|    0.004604|  5.0000e+02|   -3.513639|
|          96|  2.4078e-02|   -8.471895|   -7.933463|    0.000321|    0.004586|  5.0000e+02|   -3.515646|
|          97|  2.4079e-02|   -8.473176|   -7.934625|    0.000327|    0.004567|  5.0000e+02|   -3.516927|
|          98|  2.4091e-02|   -8.473685|   -7.935018|    0.000332|    0.004549|  5.0000e+02|   -3.517436|
|          99|  2.4106e-02|   -8.473469|   -7.934681|    0.000338|    0.004531|  5.0000e+02|   -3.517220|
|         100|  2.4117e-02|   -8.472620|   -7.933729|    0.000343|    0.004513|  5.0000e+02|   -3.516371|
|         101|  2.4124e-02|   -8.471214|   -7.932253|    0.000348|    0.004495|  5.0000e+02|   -3.514964|
|         102|  2.4126e-02|   -8.469335|   -7.930338|    0.000353|    0.004477|  5.0000e+02|   -3.513086|
|         103|  2.4124e-02|   -8.467039|   -7.928053|    0.000358|    0.004459|  5.0000e+02|   -3.510790|
|         104|  2.4127e-02|   -8.464329|   -7.925404|    0.000363|    0.004441|  5.0000e+02|   -3.508080|
|         105|  2.4126e-02|   -8.461216|   -7.922396|    0.000369|    0.004424|  5.0000e+02|   -3.504967|
|         106|  2.4126e-02|   -8.457723|   -7.919056|    0.000374|    0.004406|  5.0000e+02|   -3.501474|
|         107|  2.4128e-02|   -8.453868|   -7.915397|    0.000380|    0.004389|  5.0000e+02|   -3.497619|
|         108|  2.4128e-02|   -8.449724|   -7.911478|    0.000386|    0.004371|  5.0000e+02|   -3.493475|
|         109|  2.4125e-02|   -8.445386|   -7.907394|    0.000392|    0.004354|  5.0000e+02|   -3.489137|
|         110|  2.4124e-02|   -8.440925|   -7.903208|    0.000398|    0.004337|  5.0000e+02|   -3.484676|
|         111|  2.4124e-02|   -8.436423|   -7.898991|    0.000405|    0.004320|  5.0000e+02|   -3.480174|
|         112|  2.4123e-02|   -8.431946|   -7.894809|    0.000412|    0.004303|  5.0000e+02|   -3.475697|
|         113|  2.4124e-02|   -8.427501|   -7.890667|    0.000418|    0.004286|  5.0000e+02|   -3.471252|
|         114|  2.4123e-02|   -8.423072|   -7.886541|    0.000425|    0.004270|  5.0000e+02|   -3.466823|
|         115|  2.4122e-02|   -8.418637|   -7.882410|    0.000432|    0.004253|  5.0000e+02|   -3.462388|
|         116|  2.4118e-02|   -8.414124|   -7.878201|    0.000438|    0.004237|  5.0000e+02|   -3.457875|
|         117|  2.4117e-02|   -8.409457|   -7.873836|    0.000445|    0.004220|  5.0000e+02|   -3.453208|
|         118|  2.4128e-02|   -8.404596|   -7.869273|    0.000451|    0.004204|  5.0000e+02|   -3.448347|
|         119|  2.4151e-02|   -8.399486|   -7.864461|    0.000457|    0.004188|  5.0000e+02|   -3.443237|
|         120|  2.4152e-02|   -8.394069|   -7.859341|    0.000463|    0.004172|  5.0000e+02|   -3.437820|
|         121|  2.4150e-02|   -8.388333|   -7.853899|    0.000469|    0.004156|  5.0000e+02|   -3.432083|
|         122|  2.4151e-02|   -8.382266|   -7.848127|    0.000475|    0.004141|  5.0000e+02|   -3.426017|
|         123|  2.4152e-02|   -8.375834|   -7.841990|    0.000480|    0.004125|  5.0000e+02|   -3.419585|
|         124|  2.4157e-02|   -8.369034|   -7.835482|    0.000485|    0.004109|  5.0000e+02|   -3.412784|
|         125|  2.4163e-02|   -8.361885|   -7.828624|    0.000491|    0.004094|  5.0000e+02|   -3.405636|
|         126|  2.4166e-02|   -8.354387|   -7.821414|    0.000496|    0.004079|  5.0000e+02|   -3.398137|
|         127|  2.4170e-02|   -8.346553|   -7.813864|    0.000501|    0.004064|  5.0000e+02|   -3.390304|
|         128|  2.4171e-02|   -8.338449|   -7.806036|    0.000505|    0.004049|  5.0000e+02|   -3.382200|
|         129|  2.4174e-02|   -8.330136|   -7.797994|    0.000510|    0.004034|  5.0000e+02|   -3.373887|
|         130|  2.4176e-02|   -8.321667|   -7.789788|    0.000515|    0.004019|  5.0000e+02|   -3.365418|
|         131|  2.4178e-02|   -8.313121|   -7.781501|    0.000519|    0.004004|  5.0000e+02|   -3.356872|
|         132|  2.4182e-02|   -8.304598|   -7.773231|    0.000523|    0.003990|  5.0000e+02|   -3.348349|
|         133|  2.4187e-02|   -8.296162|   -7.765044|    0.000527|    0.003975|  5.0000e+02|   -3.339913|
|         134|  2.4200e-02|   -8.287857|   -7.756988|    0.000530|    0.003961|  5.0000e+02|   -3.331608|
|         135|  2.4212e-02|   -8.279745|   -7.749127|    0.000534|    0.003947|  5.0000e+02|   -3.323496|
|         136|  2.4226e-02|   -8.271881|   -7.741514|    0.000536|    0.003933|  5.0000e+02|   -3.315631|
|         137|  2.4240e-02|   -8.264276|   -7.734162|    0.000538|    0.003919|  5.0000e+02|   -3.308027|
|         138|  2.4252e-02|   -8.256932|   -7.727074|    0.000540|    0.003905|  5.0000e+02|   -3.300683|
|         139|  2.4262e-02|   -8.249866|   -7.720266|    0.000541|    0.003892|  5.0000e+02|   -3.293617|
|         140|  2.4272e-02|   -8.243101|   -7.713759|    0.000542|    0.003878|  5.0000e+02|   -3.286852|
|         141|  2.4281e-02|   -8.236631|   -7.707544|    0.000542|    0.003865|  5.0000e+02|   -3.280381|
|         142|  2.4290e-02|   -8.230437|   -7.701601|    0.000541|    0.003852|  5.0000e+02|   -3.274188|
|         143|  2.4293e-02|   -8.224521|   -7.695928|    0.000540|    0.003839|  5.0000e+02|   -3.268272|
|         144|  2.4296e-02|   -8.218901|   -7.690540|    0.000538|    0.003826|  5.0000e+02|   -3.262651|
|         145|  2.4299e-02|   -8.213590|   -7.685448|    0.000535|    0.003813|  5.0000e+02|   -3.257341|
|         146|  2.4301e-02|   -8.208592|   -7.680650|    0.000532|    0.003800|  5.0000e+02|   -3.252343|
|         147|  2.4305e-02|   -8.203911|   -7.676147|    0.000528|    0.003788|  5.0000e+02|   -3.247661|
|         148|  2.4311e-02|   -8.199565|   -7.671958|    0.000523|    0.003775|  5.0000e+02|   -3.243316|
|         149|  2.4315e-02|   -8.195592|   -7.668121|    0.000518|    0.003763|  5.0000e+02|   -3.239343|
|         150|  2.4317e-02|   -8.192035|   -7.664677|    0.000513|    0.003751|  5.0000e+02|   -3.235786|
|         151|  2.4318e-02|   -8.188934|   -7.661666|    0.000507|    0.003739|  5.0000e+02|   -3.232684|
|         152|  2.4318e-02|   -8.186320|   -7.659123|    0.000500|    0.003727|  5.0000e+02|   -3.230070|
|         153|  2.4317e-02|   -8.184225|   -7.657082|    0.000493|    0.003715|  5.0000e+02|   -3.227976|
|         154|  2.4316e-02|   -8.182683|   -7.655579|    0.000485|    0.003704|  5.0000e+02|   -3.226434|
|         155|  2.4320e-02|   -8.181723|   -7.654649|    0.000477|    0.003692|  5.0000e+02|   -3.225474|
|         156|  2.4320e-02|   -8.181370|   -7.654320|    0.000469|    0.003681|  5.0000e+02|   -3.225121|
|         157|  2.4318e-02|   -8.181639|   -7.654610|    0.000460|    0.003669|  5.0000e+02|   -3.225390|
|         158|  2.4316e-02|   -8.182530|   -7.655521|    0.000451|    0.003658|  5.0000e+02|   -3.226281|
|         159|  2.4317e-02|   -8.184030|   -7.657040|    0.000441|    0.003647|  5.0000e+02|   -3.227781|
|         160|  2.4314e-02|   -8.186111|   -7.659143|    0.000431|    0.003636|  5.0000e+02|   -3.229862|
|         161|  2.4313e-02|   -8.188740|   -7.661795|    0.000421|    0.003625|  5.0000e+02|   -3.232491|
|         162|  2.4311e-02|   -8.191872|   -7.664951|    0.000410|    0.003615|  5.0000e+02|   -3.235623|
|         163|  2.4308e-02|   -8.195455|   -7.668560|    0.000399|    0.003604|  5.0000e+02|   -3.239206|
|         164|  2.4307e-02|   -8.199437|   -7.672566|    0.000388|    0.003594|  5.0000e+02|   -3.243188|
|         165|  2.4305e-02|   -8.203759|   -7.676909|    0.000377|    0.003583|  5.0000e+02|   -3.247510|
|         166|  2.4301e-02|   -8.208365|   -7.681529|    0.000366|    0.003573|  5.0000e+02|   -3.252116|
|         167|  2.4301e-02|   -8.213198|   -7.686370|    0.000355|    0.003563|  5.0000e+02|   -3.256949|
|         168|  2.4297e-02|   -8.218208|   -7.691376|    0.000343|    0.003553|  5.0000e+02|   -3.261959|
|         169|  2.4297e-02|   -8.223352|   -7.696503|    0.000332|    0.003543|  5.0000e+02|   -3.267103|
|         170|  2.4295e-02|   -8.228594|   -7.701716|    0.000320|    0.003534|  5.0000e+02|   -3.272344|
|         171|  2.4292e-02|   -8.233910|   -7.706990|    0.000309|    0.003524|  5.0000e+02|   -3.277661|
|         172|  2.4290e-02|   -8.239288|   -7.712314|    0.000297|    0.003515|  5.0000e+02|   -3.283039|
|         173|  2.4288e-02|   -8.244727|   -7.717687|    0.000286|    0.003505|  5.0000e+02|   -3.288478|
|         174|  2.4288e-02|   -8.250232|   -7.723119|    0.000275|    0.003496|  5.0000e+02|   -3.293983|
|         175|  2.4287e-02|   -8.255818|   -7.728625|    0.000263|    0.003487|  5.0000e+02|   -3.299569|
|         176|  2.4284e-02|   -8.261503|   -7.734229|    0.000252|    0.003478|  5.0000e+02|   -3.305254|
|         177|  2.4282e-02|   -8.267307|   -7.739952|    0.000241|    0.003469|  5.0000e+02|   -3.311058|
|         178|  2.4279e-02|   -8.273249|   -7.745816|    0.000230|    0.003460|  5.0000e+02|   -3.317000|
|         179|  2.4280e-02|   -8.279342|   -7.751837|    0.000219|    0.003452|  5.0000e+02|   -3.323093|
|         180|  2.4283e-02|   -8.285596|   -7.758026|    0.000208|    0.003443|  5.0000e+02|   -3.329347|
|         181|  2.4286e-02|   -8.292012|   -7.764386|    0.000198|    0.003435|  5.0000e+02|   -3.335763|
|         182|  2.4289e-02|   -8.298583|   -7.770909|    0.000187|    0.003426|  5.0000e+02|   -3.342334|
|         183|  2.4292e-02|   -8.305294|   -7.777582|    0.000176|    0.003418|  5.0000e+02|   -3.349045|
|         184|  2.4293e-02|   -8.312123|   -7.784380|    0.000166|    0.003410|  5.0000e+02|   -3.355874|
|         185|  2.4291e-02|   -8.319043|   -7.791275|    0.000156|    0.003402|  5.0000e+02|   -3.362794|
|         186|  2.4289e-02|   -8.326020|   -7.798232|    0.000145|    0.003394|  5.0000e+02|   -3.369771|
|         187|  2.4290e-02|   -8.333021|   -7.805214|    0.000135|    0.003386|  5.0000e+02|   -3.376772|
|         188|  2.4291e-02|   -8.340011|   -7.812184|    0.000125|    0.003378|  5.0000e+02|   -3.383761|
|         189|  2.4294e-02|   -8.346956|   -7.819107|    0.000115|    0.003371|  5.0000e+02|   -3.390707|
|         190|  2.4295e-02|   -8.353831|   -7.825954|    0.000105|    0.003363|  5.0000e+02|   -3.397582|
|         191|  2.4292e-02|   -8.360614|   -7.832702|    0.000095|    0.003356|  5.0000e+02|   -3.404365|
|         192|  2.4290e-02|   -8.367291|   -7.839338|    0.000086|    0.003348|  5.0000e+02|   -3.411042|
|         193|  2.4289e-02|   -8.373859|   -7.845857|    0.000076|    0.003341|  5.0000e+02|   -3.417609|
|         194|  2.4287e-02|   -8.380320|   -7.852264|    0.000067|    0.003334|  5.0000e+02|   -3.424071|
|         195|  2.4286e-02|   -8.386689|   -7.858571|    0.000058|    0.003327|  5.0000e+02|   -3.430440|
|         196|  2.4285e-02|   -8.392983|   -7.864800|    0.000049|    0.003320|  5.0000e+02|   -3.436734|
|         197|  2.4282e-02|   -8.399225|   -7.870975|    0.000040|    0.003313|  5.0000e+02|   -3.442975|
|         198|  2.4279e-02|   -8.405440|   -7.877124|    0.000031|    0.003307|  5.0000e+02|   -3.449191|
|         199|  2.4278e-02|   -8.411653|   -7.883273|    0.000022|    0.003300|  5.0000e+02|   -3.455404|
|         200|  2.4276e-02|   -8.417888|   -7.889447|    0.000014|    0.003293|  5.0000e+02|   -3.461639|
|         201|  2.4272e-02|   -8.424161|   -7.895667|    0.000005|    0.003287|  5.0000e+02|   -3.467912|
|         202|  2.4269e-02|   -8.430486|   -7.901944|   -0.000003|    0.003280|  5.0000e+02|   -3.474237|
|         203|  2.4266e-02|   -8.436868|   -7.908287|   -0.000011|    0.003274|  5.0000e+02|   -3.480619|
|         204|  2.4264e-02|   -8.443308|   -7.914695|   -0.000019|    0.003268|  5.0000e+02|   -3.487059|
|         205|  2.4265e-02|   -8.449797|   -7.921158|   -0.000028|    0.003262|  5.0000e+02|   -3.493547|
|         206|  2.4263e-02|   -8.456321|   -7.927664|   -0.000036|    0.003256|  5.0000e+02|   -3.500072|
|         207|  2.4262e-02|   -8.462864|   -7.934192|   -0.000044|    0.003250|  5.0000e+02|   -3.506615|
|         208|  2.4260e-02|   -8.469404|   -7.940720|   -0.000051|    0.003244|  5.0000e+02|   -3.513155|
|         209|  2.4259e-02|   -8.475919|   -7.947224|   -0.000059|    0.003238|  5.0000e+02|   -3.519670|
|         210|  2.4257e-02|   -8.482387|   -7.953679|   -0.000067|    0.003232|  5.0000e+02|   -3.526138|
|         211|  2.4258e-02|   -8.488788|   -7.960066|   -0.000074|    0.003227|  5.0000e+02|   -3.532539|
|         212|  2.4263e-02|   -8.495107|   -7.966366|   -0.000082|    0.003221|  5.0000e+02|   -3.538858|
|         213|  2.4263e-02|   -8.501334|   -7.972570|   -0.000089|    0.003216|  5.0000e+02|   -3.545084|
|         214|  2.4268e-02|   -8.507464|   -7.978672|   -0.000097|    0.003210|  5.0000e+02|   -3.551215|
|         215|  2.4271e-02|   -8.513502|   -7.984676|   -0.000104|    0.003205|  5.0000e+02|   -3.557253|
|         216|  2.4271e-02|   -8.519455|   -7.990590|   -0.000111|    0.003200|  5.0000e+02|   -3.563206|
|         217|  2.4270e-02|   -8.525337|   -7.996429|   -0.000118|    0.003195|  5.0000e+02|   -3.569087|
|         218|  2.4268e-02|   -8.531166|   -8.002213|   -0.000125|    0.003190|  5.0000e+02|   -3.574917|
|         219|  2.4267e-02|   -8.536962|   -8.007964|   -0.000132|    0.003185|  5.0000e+02|   -3.580713|
|         220|  2.4269e-02|   -8.542748|   -8.013705|   -0.000138|    0.003180|  5.0000e+02|   -3.586499|
|         221|  2.4268e-02|   -8.548542|   -8.019456|   -0.000145|    0.003175|  5.0000e+02|   -3.592293|
|         222|  2.4267e-02|   -8.554363|   -8.025238|   -0.000152|    0.003170|  5.0000e+02|   -3.598113|
|         223|  2.4267e-02|   -8.560223|   -8.031064|   -0.000158|    0.003165|  5.0000e+02|   -3.603974|
|         224|  2.4266e-02|   -8.566133|   -8.036944|   -0.000165|    0.003160|  5.0000e+02|   -3.609884|
|         225|  2.4287e-02|   -8.572094|   -8.042881|   -0.000171|    0.003156|  5.0000e+02|   -3.615845|
|         226|  2.4287e-02|   -8.578107|   -8.048875|   -0.000177|    0.003151|  5.0000e+02|   -3.621858|
|         227|  2.4284e-02|   -8.584163|   -8.054917|   -0.000184|    0.003147|  5.0000e+02|   -3.627914|
|         228|  2.4281e-02|   -8.590253|   -8.060997|   -0.000190|    0.003142|  5.0000e+02|   -3.634004|
|         229|  2.4285e-02|   -8.596361|   -8.067097|   -0.000196|    0.003138|  5.0000e+02|   -3.640112|
|         230|  2.4290e-02|   -8.602472|   -8.073202|   -0.000202|    0.003134|  5.0000e+02|   -3.646223|
|         231|  2.4291e-02|   -8.608569|   -8.079293|   -0.000208|    0.003130|  5.0000e+02|   -3.652320|
|         232|  2.4288e-02|   -8.614637|   -8.085354|   -0.000214|    0.003125|  5.0000e+02|   -3.658388|
|         233|  2.4288e-02|   -8.620662|   -8.091369|   -0.000220|    0.003121|  5.0000e+02|   -3.664413|
|         234|  2.4289e-02|   -8.626634|   -8.097327|   -0.000226|    0.003117|  5.0000e+02|   -3.670385|
|         235|  2.4287e-02|   -8.632547|   -8.103223|   -0.000232|    0.003113|  5.0000e+02|   -3.676298|
|         236|  2.4285e-02|   -8.638399|   -8.109055|   -0.000238|    0.003109|  5.0000e+02|   -3.682150|
|         237|  2.4284e-02|   -8.644195|   -8.114825|   -0.000243|    0.003105|  5.0000e+02|   -3.687946|
|         238|  2.4283e-02|   -8.649942|   -8.120544|   -0.000249|    0.003102|  5.0000e+02|   -3.693693|
|         239|  2.4281e-02|   -8.655651|   -8.126222|   -0.000254|    0.003098|  5.0000e+02|   -3.699402|
|         240|  2.4282e-02|   -8.661336|   -8.131875|   -0.000260|    0.003094|  5.0000e+02|   -3.705087|
|         241|  2.4284e-02|   -8.667013|   -8.137519|   -0.000265|    0.003091|  5.0000e+02|   -3.710764|
|         242|  2.4284e-02|   -8.672697|   -8.143170|   -0.000270|    0.003087|  5.0000e+02|   -3.716448|
|         243|  2.4285e-02|   -8.678402|   -8.148845|   -0.000276|    0.003083|  5.0000e+02|   -3.722153|
|         244|  2.4287e-02|   -8.684139|   -8.154555|   -0.000281|    0.003080|  5.0000e+02|   -3.727890|
|         245|  2.4290e-02|   -8.689919|   -8.160310|   -0.000286|    0.003076|  5.0000e+02|   -3.733670|
|         246|  2.4292e-02|   -8.695745|   -8.166116|   -0.000291|    0.003073|  5.0000e+02|   -3.739496|
|         247|  2.4292e-02|   -8.701619|   -8.171973|   -0.000296|    0.003070|  5.0000e+02|   -3.745370|
|         248|  2.4291e-02|   -8.707539|   -8.177880|   -0.000301|    0.003066|  5.0000e+02|   -3.751289|
|         249|  2.4289e-02|   -8.713497|   -8.183828|   -0.000306|    0.003063|  5.0000e+02|   -3.757247|
|         250|  2.4288e-02|   -8.719484|   -8.189808|   -0.000311|    0.003060|  5.0000e+02|   -3.763235|
+-----------------------------------------------------------------------+
|        File Writing Summary       |              Filename             |
+-----------------------------------------------------------------------+
|SU2 restart                        |restart.dat                        |
|                                   |                     (680.302 MB/s)|
|Paraview                           |vol_solution.vtu                   |
|                                   |                     (548.541 MB/s)|
|Paraview surface                   |surface.vtu                        |
|                                   |                     (16.3593 MB/s)|
+-----------------------------------------------------------------------+

Writing the forces breakdown file (forces_breakdown.dat).
+-------------------------------------------------------------------------------------------------------+
|  Inner_Iter|   Time(sec)|    rms[Rho]|   rms[RhoE]|          CL|          CD|     Avg CFL| relrms[Rho]|
+-------------------------------------------------------------------------------------------------------+
|         251|  2.4346e-02|   -8.725490|   -8.195808|   -0.000316|    0.003057|  5.0000e+02|   -3.769241|
|         252|  2.4345e-02|   -8.731501|   -8.201815|   -0.000321|    0.003054|  5.0000e+02|   -3.775252|
|         253|  2.4343e-02|   -8.737506|   -8.207814|   -0.000326|    0.003051|  5.0000e+02|   -3.781257|
|         254|  2.4343e-02|   -8.743493|   -8.213794|   -0.000330|    0.003048|  5.0000e+02|   -3.787244|
|         255|  2.4341e-02|   -8.749452|   -8.219744|   -0.000335|    0.003045|  5.0000e+02|   -3.793203|
|         256|  2.4339e-02|   -8.755376|   -8.225658|   -0.000340|    0.003042|  5.0000e+02|   -3.799127|
|         257|  2.4338e-02|   -8.761263|   -8.231530|   -0.000344|    0.003039|  5.0000e+02|   -3.805014|
|         258|  2.4335e-02|   -8.767112|   -8.237362|   -0.000349|    0.003036|  5.0000e+02|   -3.810863|
|         259|  2.4334e-02|   -8.772926|   -8.243156|   -0.000353|    0.003033|  5.0000e+02|   -3.816677|
|         260|  2.4333e-02|   -8.778711|   -8.248919|   -0.000358|    0.003030|  5.0000e+02|   -3.822462|
|         261|  2.4333e-02|   -8.784477|   -8.254661|   -0.000362|    0.003028|  5.0000e+02|   -3.828228|
|         262|  2.4331e-02|   -8.790234|   -8.260393|   -0.000366|    0.003025|  5.0000e+02|   -3.833985|
|         263|  2.4329e-02|   -8.795992|   -8.266126|   -0.000370|    0.003022|  5.0000e+02|   -3.839743|
|         264|  2.4328e-02|   -8.801763|   -8.271873|   -0.000375|    0.003020|  5.0000e+02|   -3.845514|
|         265|  2.4327e-02|   -8.807557|   -8.277645|   -0.000379|    0.003017|  5.0000e+02|   -3.851308|
|         266|  2.4324e-02|   -8.813382|   -8.283449|   -0.000383|    0.003015|  5.0000e+02|   -3.857133|
|         267|  2.4322e-02|   -8.819243|   -8.289292|   -0.000387|    0.003012|  5.0000e+02|   -3.862994|
|         268|  2.4320e-02|   -8.825142|   -8.295177|   -0.000391|    0.003010|  5.0000e+02|   -3.868893|
|         269|  2.4318e-02|   -8.831081|   -8.301103|   -0.000395|    0.003007|  5.0000e+02|   -3.874832|
|         270|  2.4317e-02|   -8.837055|   -8.307068|   -0.000399|    0.003005|  5.0000e+02|   -3.880806|
|         271|  2.4317e-02|   -8.843060|   -8.313065|   -0.000403|    0.003003|  5.0000e+02|   -3.886811|
|         272|  2.4315e-02|   -8.849087|   -8.319087|   -0.000407|    0.003000|  5.0000e+02|   -3.892838|
|         273|  2.4312e-02|   -8.855128|   -8.325123|   -0.000411|    0.002998|  5.0000e+02|   -3.898879|
|         274|  2.4310e-02|   -8.861174|   -8.331165|   -0.000414|    0.002996|  5.0000e+02|   -3.904925|
|         275|  2.4307e-02|   -8.867216|   -8.337201|   -0.000418|    0.002994|  5.0000e+02|   -3.910967|
|         276|  2.4307e-02|   -8.873244|   -8.343224|   -0.000422|    0.002991|  5.0000e+02|   -3.916995|
|         277|  2.4310e-02|   -8.879254|   -8.349226|   -0.000425|    0.002989|  5.0000e+02|   -3.923005|
|         278|  2.4311e-02|   -8.885240|   -8.355203|   -0.000429|    0.002987|  5.0000e+02|   -3.928991|
|         279|  2.4314e-02|   -8.891200|   -8.361151|   -0.000433|    0.002985|  5.0000e+02|   -3.934951|
|         280|  2.4314e-02|   -8.897136|   -8.367073|   -0.000436|    0.002983|  5.0000e+02|   -3.940887|
|         281|  2.4314e-02|   -8.903049|   -8.372971|   -0.000440|    0.002981|  5.0000e+02|   -3.946800|
|         282|  2.4316e-02|   -8.908945|   -8.378851|   -0.000443|    0.002979|  5.0000e+02|   -3.952696|
|         283|  2.4314e-02|   -8.914832|   -8.384719|   -0.000447|    0.002977|  5.0000e+02|   -3.958583|
|         284|  2.4314e-02|   -8.920716|   -8.390585|   -0.000450|    0.002975|  5.0000e+02|   -3.964467|
|         285|  2.4316e-02|   -8.926606|   -8.396457|   -0.000453|    0.002973|  5.0000e+02|   -3.970357|
|         286|  2.4317e-02|   -8.932510|   -8.402344|   -0.000457|    0.002971|  5.0000e+02|   -3.976261|
|         287|  2.4318e-02|   -8.938434|   -8.408252|   -0.000460|    0.002970|  5.0000e+02|   -3.982185|
|         288|  2.4319e-02|   -8.944383|   -8.414188|   -0.000463|    0.002968|  5.0000e+02|   -3.988134|
|         289|  2.4320e-02|   -8.950362|   -8.420155|   -0.000466|    0.002966|  5.0000e+02|   -3.994113|
|         290|  2.4319e-02|   -8.956372|   -8.426155|   -0.000469|    0.002964|  5.0000e+02|   -4.000123|
|         291|  2.4317e-02|   -8.962411|   -8.432186|   -0.000472|    0.002962|  5.0000e+02|   -4.006162|
|         292|  2.4317e-02|   -8.968477|   -8.438247|   -0.000476|    0.002961|  5.0000e+02|   -4.012228|
|         293|  2.4315e-02|   -8.974566|   -8.444331|   -0.000479|    0.002959|  5.0000e+02|   -4.018317|
|         294|  2.4314e-02|   -8.980671|   -8.450433|   -0.000482|    0.002957|  5.0000e+02|   -4.024422|
|         295|  2.4313e-02|   -8.986785|   -8.456545|   -0.000485|    0.002956|  5.0000e+02|   -4.030536|
|         296|  2.4312e-02|   -8.992903|   -8.462661|   -0.000488|    0.002954|  5.0000e+02|   -4.036654|
|         297|  2.4311e-02|   -8.999017|   -8.468772|   -0.000490|    0.002953|  5.0000e+02|   -4.042767|
|         298|  2.4310e-02|   -9.005121|   -8.474873|   -0.000493|    0.002951|  5.0000e+02|   -4.048872|
|         299|  2.4308e-02|   -9.011211|   -8.480959|   -0.000496|    0.002949|  5.0000e+02|   -4.054962|
|         300|  2.4306e-02|   -9.017285|   -8.487027|   -0.000499|    0.002948|  5.0000e+02|   -4.061036|
|         301|  2.4306e-02|   -9.023341|   -8.493077|   -0.000502|    0.002946|  5.0000e+02|   -4.067092|
|         302|  2.4306e-02|   -9.029380|   -8.499108|   -0.000504|    0.002945|  5.0000e+02|   -4.073131|
|         303|  2.4305e-02|   -9.035406|   -8.505124|   -0.000507|    0.002944|  5.0000e+02|   -4.079157|
|         304|  2.4305e-02|   -9.041422|   -8.511130|   -0.000510|    0.002942|  5.0000e+02|   -4.085173|
|         305|  2.4304e-02|   -9.047433|   -8.517131|   -0.000512|    0.002941|  5.0000e+02|   -4.091184|
|         306|  2.4303e-02|   -9.053446|   -8.523133|   -0.000515|    0.002939|  5.0000e+02|   -4.097197|
|         307|  2.4301e-02|   -9.059465|   -8.529142|   -0.000518|    0.002938|  5.0000e+02|   -4.103216|
|         308|  2.4299e-02|   -9.065497|   -8.535165|   -0.000520|    0.002937|  5.0000e+02|   -4.109248|
|         309|  2.4298e-02|   -9.071546|   -8.541207|   -0.000523|    0.002935|  5.0000e+02|   -4.115297|
|         310|  2.4297e-02|   -9.077617|   -8.547271|   -0.000525|    0.002934|  5.0000e+02|   -4.121367|
|         311|  2.4299e-02|   -9.083709|   -8.553359|   -0.000528|    0.002933|  5.0000e+02|   -4.127460|
|         312|  2.4299e-02|   -9.089826|   -8.559473|   -0.000530|    0.002931|  5.0000e+02|   -4.133577|
|         313|  2.4299e-02|   -9.095964|   -8.565611|   -0.000533|    0.002930|  5.0000e+02|   -4.139715|
|         314|  2.4299e-02|   -9.102122|   -8.571769|   -0.000535|    0.002929|  5.0000e+02|   -4.145873|
|         315|  2.4298e-02|   -9.108296|   -8.577946|   -0.000537|    0.002928|  5.0000e+02|   -4.152047|
|         316|  2.4297e-02|   -9.114482|   -8.584134|   -0.000540|    0.002927|  5.0000e+02|   -4.158233|
|         317|  2.4297e-02|   -9.120674|   -8.590330|   -0.000542|    0.002925|  5.0000e+02|   -4.164425|
|         318|  2.4295e-02|   -9.126867|   -8.596527|   -0.000544|    0.002924|  5.0000e+02|   -4.170618|
|         319|  2.4294e-02|   -9.133058|   -8.602721|   -0.000546|    0.002923|  5.0000e+02|   -4.176809|
|         320|  2.4293e-02|   -9.139240|   -8.608908|   -0.000549|    0.002922|  5.0000e+02|   -4.182991|
|         321|  2.4292e-02|   -9.145413|   -8.615083|   -0.000551|    0.002921|  5.0000e+02|   -4.189164|
|         322|  2.4291e-02|   -9.151574|   -8.621247|   -0.000553|    0.002920|  5.0000e+02|   -4.195325|
|         323|  2.4289e-02|   -9.157723|   -8.627397|   -0.000555|    0.002919|  5.0000e+02|   -4.201474|
|         324|  2.4288e-02|   -9.163861|   -8.633536|   -0.000557|    0.002918|  5.0000e+02|   -4.207612|
|         325|  2.4287e-02|   -9.169990|   -8.639666|   -0.000559|    0.002917|  5.0000e+02|   -4.213741|
|         326|  2.4287e-02|   -9.176114|   -8.645790|   -0.000561|    0.002916|  5.0000e+02|   -4.219865|
|         327|  2.4286e-02|   -9.182237|   -8.651913|   -0.000563|    0.002915|  5.0000e+02|   -4.225988|
|         328|  2.4285e-02|   -9.188362|   -8.658039|   -0.000565|    0.002914|  5.0000e+02|   -4.232113|
|         329|  2.4284e-02|   -9.194494|   -8.664173|   -0.000567|    0.002913|  5.0000e+02|   -4.238245|
|         330|  2.4284e-02|   -9.200638|   -8.670319|   -0.000569|    0.002912|  5.0000e+02|   -4.244389|
|         331|  2.4285e-02|   -9.206796|   -8.676481|   -0.000571|    0.002911|  5.0000e+02|   -4.250546|
|         332|  2.4286e-02|   -9.212970|   -8.682661|   -0.000573|    0.002910|  5.0000e+02|   -4.256720|
|         333|  2.4285e-02|   -9.219161|   -8.688860|   -0.000575|    0.002909|  5.0000e+02|   -4.262912|
|         334|  2.4284e-02|   -9.225370|   -8.695078|   -0.000577|    0.002908|  5.0000e+02|   -4.269121|
|         335|  2.4282e-02|   -9.231595|   -8.701315|   -0.000579|    0.002907|  5.0000e+02|   -4.275346|
|         336|  2.4281e-02|   -9.237835|   -8.707567|   -0.000580|    0.002906|  5.0000e+02|   -4.281586|
|         337|  2.4280e-02|   -9.244086|   -8.713831|   -0.000582|    0.002905|  5.0000e+02|   -4.287837|
|         338|  2.4278e-02|   -9.250344|   -8.720104|   -0.000584|    0.002904|  5.0000e+02|   -4.294095|
|         339|  2.4278e-02|   -9.256607|   -8.726382|   -0.000586|    0.002904|  5.0000e+02|   -4.300358|
|         340|  2.4276e-02|   -9.262869|   -8.732661|   -0.000588|    0.002903|  5.0000e+02|   -4.306620|
|         341|  2.4276e-02|   -9.269129|   -8.738938|   -0.000589|    0.002902|  5.0000e+02|   -4.312880|
|         342|  2.4275e-02|   -9.275383|   -8.745208|   -0.000591|    0.002901|  5.0000e+02|   -4.319134|
|         343|  2.4274e-02|   -9.281630|   -8.751472|   -0.000593|    0.002900|  5.0000e+02|   -4.325381|
|         344|  2.4275e-02|   -9.287868|   -8.757726|   -0.000594|    0.002900|  5.0000e+02|   -4.331619|
|         345|  2.4275e-02|   -9.294097|   -8.763973|   -0.000596|    0.002899|  5.0000e+02|   -4.337848|
|         346|  2.4275e-02|   -9.300320|   -8.770212|   -0.000597|    0.002898|  5.0000e+02|   -4.344071|
|         347|  2.4274e-02|   -9.306537|   -8.776446|   -0.000599|    0.002897|  5.0000e+02|   -4.350288|
|         348|  2.4274e-02|   -9.312751|   -8.782678|   -0.000601|    0.002897|  5.0000e+02|   -4.356502|
|         349|  2.4273e-02|   -9.318966|   -8.788911|   -0.000602|    0.002896|  5.0000e+02|   -4.362717|
|         350|  2.4272e-02|   -9.325184|   -8.795148|   -0.000604|    0.002895|  5.0000e+02|   -4.368935|
|         351|  2.4271e-02|   -9.331408|   -8.801393|   -0.000605|    0.002895|  5.0000e+02|   -4.375159|
|         352|  2.4271e-02|   -9.337641|   -8.807649|   -0.000607|    0.002894|  5.0000e+02|   -4.381392|
|         353|  2.4270e-02|   -9.343886|   -8.813917|   -0.000608|    0.002893|  5.0000e+02|   -4.387636|
|         354|  2.4269e-02|   -9.350143|   -8.820200|   -0.000610|    0.002892|  5.0000e+02|   -4.393893|
|         355|  2.4269e-02|   -9.356413|   -8.826497|   -0.000611|    0.002892|  5.0000e+02|   -4.400163|
|         356|  2.4268e-02|   -9.362695|   -8.832810|   -0.000612|    0.002891|  5.0000e+02|   -4.406446|
|         357|  2.4267e-02|   -9.368990|   -8.839136|   -0.000614|    0.002891|  5.0000e+02|   -4.412741|
|         358|  2.4265e-02|   -9.375294|   -8.845473|   -0.000615|    0.002890|  5.0000e+02|   -4.419045|
|         359|  2.4265e-02|   -9.381606|   -8.851820|   -0.000616|    0.002889|  5.0000e+02|   -4.425357|
|         360|  2.4265e-02|   -9.387922|   -8.858173|   -0.000618|    0.002889|  5.0000e+02|   -4.431673|
|         361|  2.4267e-02|   -9.394241|   -8.864530|   -0.000619|    0.002888|  5.0000e+02|   -4.437992|
|         362|  2.4266e-02|   -9.400559|   -8.870887|   -0.000620|    0.002888|  5.0000e+02|   -4.444309|
|         363|  2.4266e-02|   -9.406873|   -8.877242|   -0.000622|    0.002887|  5.0000e+02|   -4.450624|
|         364|  2.4265e-02|   -9.413184|   -8.883593|   -0.000623|    0.002886|  5.0000e+02|   -4.456935|
|         365|  2.4278e-02|   -9.419488|   -8.889939|   -0.000624|    0.002886|  5.0000e+02|   -4.463239|
|         366|  2.4278e-02|   -9.425786|   -8.896280|   -0.000625|    0.002885|  5.0000e+02|   -4.469537|
|         367|  2.4278e-02|   -9.432077|   -8.902615|   -0.000627|    0.002885|  5.0000e+02|   -4.475828|
|         368|  2.4276e-02|   -9.438364|   -8.908947|   -0.000628|    0.002884|  5.0000e+02|   -4.482115|
|         369|  2.4276e-02|   -9.444647|   -8.915276|   -0.000629|    0.002884|  5.0000e+02|   -4.488398|
|         370|  2.4275e-02|   -9.450929|   -8.921604|   -0.000630|    0.002883|  5.0000e+02|   -4.494680|
|         371|  2.4273e-02|   -9.457211|   -8.927936|   -0.000631|    0.002883|  5.0000e+02|   -4.500962|
|         372|  2.4272e-02|   -9.463496|   -8.934272|   -0.000633|    0.002882|  5.0000e+02|   -4.507247|
|         373|  2.4271e-02|   -9.469787|   -8.940615|   -0.000634|    0.002882|  5.0000e+02|   -4.513538|
|         374|  2.4269e-02|   -9.476084|   -8.946967|   -0.000635|    0.002881|  5.0000e+02|   -4.519835|
|         375|  2.4269e-02|   -9.482389|   -8.953330|   -0.000636|    0.002881|  5.0000e+02|   -4.526140|
|         376|  2.4268e-02|   -9.488704|   -8.959704|   -0.000637|    0.002880|  5.0000e+02|   -4.532455|
|         377|  2.4267e-02|   -9.495027|   -8.966090|   -0.000638|    0.002880|  5.0000e+02|   -4.538778|
|         378|  2.4267e-02|   -9.501359|   -8.972488|   -0.000639|    0.002879|  5.0000e+02|   -4.545110|
|         379|  2.4266e-02|   -9.507699|   -8.978896|   -0.000640|    0.002879|  5.0000e+02|   -4.551450|
|         380|  2.4266e-02|   -9.514045|   -8.985313|   -0.000641|    0.002878|  5.0000e+02|   -4.557796|
|         381|  2.4265e-02|   -9.520395|   -8.991736|   -0.000642|    0.002878|  5.0000e+02|   -4.564146|
|         382|  2.4263e-02|   -9.526748|   -8.998164|   -0.000643|    0.002877|  5.0000e+02|   -4.570499|
|         383|  2.4262e-02|   -9.533101|   -9.004595|   -0.000644|    0.002877|  5.0000e+02|   -4.576852|
|         384|  2.4262e-02|   -9.539452|   -9.011026|   -0.000645|    0.002877|  5.0000e+02|   -4.583203|
|         385|  2.4264e-02|   -9.545799|   -9.017456|   -0.000646|    0.002876|  5.0000e+02|   -4.589550|
|         386|  2.4264e-02|   -9.552142|   -9.023883|   -0.000647|    0.002876|  5.0000e+02|   -4.595893|
|         387|  2.4263e-02|   -9.558480|   -9.030307|   -0.000648|    0.002875|  5.0000e+02|   -4.602231|
|         388|  2.4263e-02|   -9.564812|   -9.036728|   -0.000649|    0.002875|  5.0000e+02|   -4.608563|
|         389|  2.4262e-02|   -9.571139|   -9.043145|   -0.000650|    0.002875|  5.0000e+02|   -4.614890|
|         390|  2.4262e-02|   -9.577462|   -9.049561|   -0.000651|    0.002874|  5.0000e+02|   -4.621213|
|         391|  2.4261e-02|   -9.583782|   -9.055977|   -0.000652|    0.002874|  5.0000e+02|   -4.627533|
|         392|  2.4260e-02|   -9.590100|   -9.062393|   -0.000653|    0.002874|  5.0000e+02|   -4.633851|
|         393|  2.4260e-02|   -9.596418|   -9.068813|   -0.000653|    0.002873|  5.0000e+02|   -4.640169|
|         394|  2.4259e-02|   -9.602738|   -9.075237|   -0.000654|    0.002873|  5.0000e+02|   -4.646489|
|         395|  2.4259e-02|   -9.609061|   -9.081668|   -0.000655|    0.002872|  5.0000e+02|   -4.652812|
|         396|  2.4259e-02|   -9.615388|   -9.088106|   -0.000656|    0.002872|  5.0000e+02|   -4.659139|
|         397|  2.4258e-02|   -9.621720|   -9.094554|   -0.000657|    0.002872|  5.0000e+02|   -4.665471|
|         398|  2.4257e-02|   -9.628057|   -9.101010|   -0.000658|    0.002871|  5.0000e+02|   -4.671808|
|         399|  2.4257e-02|   -9.634400|   -9.107476|   -0.000658|    0.002871|  5.0000e+02|   -4.678151|
|         400|  2.4258e-02|   -9.640748|   -9.113951|   -0.000659|    0.002871|  5.0000e+02|   -4.684499|
|         401|  2.4258e-02|   -9.647099|   -9.120434|   -0.000660|    0.002870|  5.0000e+02|   -4.690850|
|         402|  2.4258e-02|   -9.653453|   -9.126923|   -0.000661|    0.002870|  5.0000e+02|   -4.697204|
|         403|  2.4257e-02|   -9.659808|   -9.133418|   -0.000662|    0.002870|  5.0000e+02|   -4.703559|
|         404|  2.4258e-02|   -9.666163|   -9.139916|   -0.000662|    0.002870|  5.0000e+02|   -4.709914|
|         405|  2.4258e-02|   -9.672515|   -9.146416|   -0.000663|    0.002869|  5.0000e+02|   -4.716266|
|         406|  2.4257e-02|   -9.678864|   -9.152916|   -0.000664|    0.002869|  5.0000e+02|   -4.722615|
|         407|  2.4256e-02|   -9.685209|   -9.159416|   -0.000664|    0.002869|  5.0000e+02|   -4.728960|
|         408|  2.4256e-02|   -9.691548|   -9.165915|   -0.000665|    0.002868|  5.0000e+02|   -4.735299|
|         409|  2.4255e-02|   -9.697881|   -9.172411|   -0.000666|    0.002868|  5.0000e+02|   -4.741632|
|         410|  2.4255e-02|   -9.704208|   -9.178906|   -0.000667|    0.002868|  5.0000e+02|   -4.747959|
|         411|  2.4254e-02|   -9.710530|   -9.185400|   -0.000667|    0.002867|  5.0000e+02|   -4.754281|
|         412|  2.4253e-02|   -9.716847|   -9.191893|   -0.000668|    0.002867|  5.0000e+02|   -4.760598|
|         413|  2.4253e-02|   -9.723160|   -9.198386|   -0.000669|    0.002867|  5.0000e+02|   -4.766911|
|         414|  2.4252e-02|   -9.729470|   -9.204882|   -0.000669|    0.002867|  5.0000e+02|   -4.773221|
|         415|  2.4251e-02|   -9.735778|   -9.211381|   -0.000670|    0.002866|  5.0000e+02|   -4.779529|
|         416|  2.4250e-02|   -9.742085|   -9.217884|   -0.000670|    0.002866|  5.0000e+02|   -4.785836|
|         417|  2.4250e-02|   -9.748393|   -9.224394|   -0.000671|    0.002866|  5.0000e+02|   -4.792144|
|         418|  2.4249e-02|   -9.754701|   -9.230910|   -0.000672|    0.002866|  5.0000e+02|   -4.798452|
|         419|  2.4248e-02|   -9.761011|   -9.237433|   -0.000672|    0.002865|  5.0000e+02|   -4.804762|
|         420|  2.4248e-02|   -9.767322|   -9.243964|   -0.000673|    0.002865|  5.0000e+02|   -4.811073|
|         421|  2.4247e-02|   -9.773634|   -9.250502|   -0.000674|    0.002865|  5.0000e+02|   -4.817384|
|         422|  2.4246e-02|   -9.779946|   -9.257047|   -0.000674|    0.002865|  5.0000e+02|   -4.823697|
|         423|  2.4246e-02|   -9.786258|   -9.263599|   -0.000675|    0.002865|  5.0000e+02|   -4.830009|
|         424|  2.4245e-02|   -9.792568|   -9.270155|   -0.000675|    0.002864|  5.0000e+02|   -4.836319|
|         425|  2.4244e-02|   -9.798876|   -9.276716|   -0.000676|    0.002864|  5.0000e+02|   -4.842627|
|         426|  2.4243e-02|   -9.805180|   -9.283279|   -0.000676|    0.002864|  5.0000e+02|   -4.848931|
|         427|  2.4243e-02|   -9.811479|   -9.289844|   -0.000677|    0.002864|  5.0000e+02|   -4.855230|
|         428|  2.4243e-02|   -9.817772|   -9.296410|   -0.000677|    0.002863|  5.0000e+02|   -4.861523|
|         429|  2.4243e-02|   -9.824058|   -9.302975|   -0.000678|    0.002863|  5.0000e+02|   -4.867809|
|         430|  2.4242e-02|   -9.830336|   -9.309540|   -0.000679|    0.002863|  5.0000e+02|   -4.874087|
|         431|  2.4242e-02|   -9.836607|   -9.316104|   -0.000679|    0.002863|  5.0000e+02|   -4.880358|
|         432|  2.4242e-02|   -9.842869|   -9.322668|   -0.000680|    0.002863|  5.0000e+02|   -4.886620|
|         433|  2.4244e-02|   -9.849124|   -9.329231|   -0.000680|    0.002862|  5.0000e+02|   -4.892875|
|         434|  2.4244e-02|   -9.855372|   -9.335794|   -0.000681|    0.002862|  5.0000e+02|   -4.899123|
|         435|  2.4242e-02|   -9.861613|   -9.342359|   -0.000681|    0.002862|  5.0000e+02|   -4.905364|
|         436|  2.4242e-02|   -9.867848|   -9.348927|   -0.000682|    0.002862|  5.0000e+02|   -4.911599|
|         437|  2.4241e-02|   -9.874078|   -9.355497|   -0.000682|    0.002862|  5.0000e+02|   -4.917829|
|         438|  2.4241e-02|   -9.880304|   -9.362072|   -0.000682|    0.002862|  5.0000e+02|   -4.924055|
|         439|  2.4240e-02|   -9.886525|   -9.368653|   -0.000683|    0.002861|  5.0000e+02|   -4.930276|
|         440|  2.4240e-02|   -9.892743|   -9.375238|   -0.000683|    0.002861|  5.0000e+02|   -4.936493|
|         441|  2.4239e-02|   -9.898956|   -9.381830|   -0.000684|    0.002861|  5.0000e+02|   -4.942707|
|         442|  2.4238e-02|   -9.905167|   -9.388428|   -0.000684|    0.002861|  5.0000e+02|   -4.948918|
|         443|  2.4238e-02|   -9.911372|   -9.395032|   -0.000685|    0.002861|  5.0000e+02|   -4.955123|
|         444|  2.4237e-02|   -9.917574|   -9.401642|   -0.000685|    0.002860|  5.0000e+02|   -4.961324|
|         445|  2.4236e-02|   -9.923769|   -9.408256|   -0.000686|    0.002860|  5.0000e+02|   -4.967520|
|         446|  2.4236e-02|   -9.929958|   -9.414875|   -0.000686|    0.002860|  5.0000e+02|   -4.973709|
|         447|  2.4236e-02|   -9.936139|   -9.421496|   -0.000686|    0.002860|  5.0000e+02|   -4.979890|
|         448|  2.4236e-02|   -9.942312|   -9.428120|   -0.000687|    0.002860|  5.0000e+02|   -4.986063|
|         449|  2.4236e-02|   -9.948476|   -9.434746|   -0.000687|    0.002860|  5.0000e+02|   -4.992226|
|         450|  2.4236e-02|   -9.954629|   -9.441372|   -0.000688|    0.002860|  5.0000e+02|   -4.998380|
|         451|  2.4236e-02|   -9.960771|   -9.447998|   -0.000688|    0.002859|  5.0000e+02|   -5.004522|
|         452|  2.4236e-02|   -9.966901|   -9.454625|   -0.000688|    0.002859|  5.0000e+02|   -5.010652|
|         453|  2.4236e-02|   -9.973020|   -9.461251|   -0.000689|    0.002859|  5.0000e+02|   -5.016771|
|         454|  2.4237e-02|   -9.979127|   -9.467877|   -0.000689|    0.002859|  5.0000e+02|   -5.022878|
|         455|  2.4238e-02|   -9.985223|   -9.474504|   -0.000689|    0.002859|  5.0000e+02|   -5.028974|
|         456|  2.4238e-02|   -9.991307|   -9.481132|   -0.000690|    0.002859|  5.0000e+02|   -5.035057|
|         457|  2.4239e-02|   -9.997379|   -9.487762|   -0.000690|    0.002859|  5.0000e+02|   -5.041130|
|         458|  2.4239e-02|  -10.003441|   -9.494394|   -0.000691|    0.002858|  5.0000e+02|   -5.047192|
|         459|  2.4239e-02|  -10.009493|   -9.501030|   -0.000691|    0.002858|  5.0000e+02|   -5.053244|
|         460|  2.4239e-02|  -10.015534|   -9.507669|   -0.000691|    0.002858|  5.0000e+02|   -5.059285|
|         461|  2.4239e-02|  -10.021566|   -9.514313|   -0.000692|    0.002858|  5.0000e+02|   -5.065316|
|         462|  2.4240e-02|  -10.027587|   -9.520962|   -0.000692|    0.002858|  5.0000e+02|   -5.071338|
|         463|  2.4240e-02|  -10.033598|   -9.527616|   -0.000692|    0.002858|  5.0000e+02|   -5.077349|
|         464|  2.4240e-02|  -10.039599|   -9.534274|   -0.000693|    0.002858|  5.0000e+02|   -5.083350|
|         465|  2.4240e-02|  -10.045589|   -9.540938|   -0.000693|    0.002858|  5.0000e+02|   -5.089340|
|         466|  2.4241e-02|  -10.051568|   -9.547606|   -0.000693|    0.002857|  5.0000e+02|   -5.095319|
|         467|  2.4240e-02|  -10.057534|   -9.554278|   -0.000694|    0.002857|  5.0000e+02|   -5.101285|
|         468|  2.4240e-02|  -10.063487|   -9.560953|   -0.000694|    0.002857|  5.0000e+02|   -5.107238|
|         469|  2.4240e-02|  -10.069426|   -9.567630|   -0.000694|    0.002857|  5.0000e+02|   -5.113177|
|         470|  2.4241e-02|  -10.075350|   -9.574310|   -0.000694|    0.002857|  5.0000e+02|   -5.119101|
|         471|  2.4241e-02|  -10.081259|   -9.580991|   -0.000695|    0.002857|  5.0000e+02|   -5.125010|
|         472|  2.4241e-02|  -10.087151|   -9.587673|   -0.000695|    0.002857|  5.0000e+02|   -5.130902|
|         473|  2.4240e-02|  -10.093026|   -9.594355|   -0.000695|    0.002857|  5.0000e+02|   -5.136777|
|         474|  2.4240e-02|  -10.098884|   -9.601038|   -0.000696|    0.002857|  5.0000e+02|   -5.142635|
|         475|  2.4240e-02|  -10.104725|   -9.607721|   -0.000696|    0.002857|  5.0000e+02|   -5.148476|
|         476|  2.4240e-02|  -10.110548|   -9.614404|   -0.000696|    0.002856|  5.0000e+02|   -5.154299|
|         477|  2.4239e-02|  -10.116353|   -9.621089|   -0.000696|    0.002856|  5.0000e+02|   -5.160104|
|         478|  2.4239e-02|  -10.122140|   -9.627775|   -0.000697|    0.002856|  5.0000e+02|   -5.165891|
|         479|  2.4238e-02|  -10.127909|   -9.634462|   -0.000697|    0.002856|  5.0000e+02|   -5.171660|
|         480|  2.4238e-02|  -10.133661|   -9.641153|   -0.000697|    0.002856|  5.0000e+02|   -5.177412|
|         481|  2.4238e-02|  -10.139396|   -9.647846|   -0.000697|    0.002856|  5.0000e+02|   -5.183147|
|         482|  2.4237e-02|  -10.145113|   -9.654543|   -0.000698|    0.002856|  5.0000e+02|   -5.188864|
|         483|  2.4238e-02|  -10.150813|   -9.661243|   -0.000698|    0.002856|  5.0000e+02|   -5.194564|
|         484|  2.4237e-02|  -10.156494|   -9.667948|   -0.000698|    0.002856|  5.0000e+02|   -5.200245|
|         485|  2.4237e-02|  -10.162158|   -9.674657|   -0.000698|    0.002856|  5.0000e+02|   -5.205909|
|         486|  2.4236e-02|  -10.167804|   -9.681369|   -0.000699|    0.002856|  5.0000e+02|   -5.211555|
|         487|  2.4236e-02|  -10.173430|   -9.688086|   -0.000699|    0.002855|  5.0000e+02|   -5.217181|
|         488|  2.4235e-02|  -10.179037|   -9.694806|   -0.000699|    0.002855|  5.0000e+02|   -5.222788|
|         489|  2.4235e-02|  -10.184624|   -9.701529|   -0.000699|    0.002855|  5.0000e+02|   -5.228375|
|         490|  2.4235e-02|  -10.190189|   -9.708255|   -0.000700|    0.002855|  5.0000e+02|   -5.233940|
|         491|  2.4234e-02|  -10.195733|   -9.714983|   -0.000700|    0.002855|  5.0000e+02|   -5.239484|
|         492|  2.4233e-02|  -10.201255|   -9.721713|   -0.000700|    0.002855|  5.0000e+02|   -5.245006|
|         493|  2.4233e-02|  -10.206753|   -9.728443|   -0.000700|    0.002855|  5.0000e+02|   -5.250504|
|         494|  2.4232e-02|  -10.212228|   -9.735175|   -0.000700|    0.002855|  5.0000e+02|   -5.255979|
|         495|  2.4232e-02|  -10.217679|   -9.741907|   -0.000701|    0.002855|  5.0000e+02|   -5.261430|
|         496|  2.4232e-02|  -10.223106|   -9.748640|   -0.000701|    0.002855|  5.0000e+02|   -5.266857|
|         497|  2.4231e-02|  -10.228507|   -9.755374|   -0.000701|    0.002855|  5.0000e+02|   -5.272258|
|         498|  2.4231e-02|  -10.233884|   -9.762108|   -0.000701|    0.002855|  5.0000e+02|   -5.277635|
|         499|  2.4230e-02|  -10.239236|   -9.768844|   -0.000701|    0.002855|  5.0000e+02|   -5.282987|
|         500|  2.4230e-02|  -10.244563|   -9.775581|   -0.000702|    0.002854|  5.0000e+02|   -5.288314|
+-----------------------------------------------------------------------+
|        File Writing Summary       |              Filename             |
+-----------------------------------------------------------------------+
|SU2 restart                        |restart.dat                        |
|                                   |                     (710.977 MB/s)|
|Paraview                           |vol_solution.vtu                   |
|                                   |                       (524.1 MB/s)|
|Paraview surface                   |surface.vtu                        |
|                                   |                     (16.8569 MB/s)|
+-----------------------------------------------------------------------+

Writing the forces breakdown file (forces_breakdown.dat).
+-------------------------------------------------------------------------------------------------------+
|  Inner_Iter|   Time(sec)|    rms[Rho]|   rms[RhoE]|          CL|          CD|     Avg CFL| relrms[Rho]|
+-------------------------------------------------------------------------------------------------------+
|         501|  2.4258e-02|  -10.249864|   -9.782319|   -0.000702|    0.002854|  5.0000e+02|   -5.293615|
|         502|  2.4259e-02|  -10.255140|   -9.789060|   -0.000702|    0.002854|  5.0000e+02|   -5.298891|
|         503|  2.4260e-02|  -10.260391|   -9.795804|   -0.000702|    0.002854|  5.0000e+02|   -5.304142|
|         504|  2.4260e-02|  -10.265617|   -9.802551|   -0.000702|    0.002854|  5.0000e+02|   -5.309368|
|         505|  2.4259e-02|  -10.270817|   -9.809301|   -0.000703|    0.002854|  5.0000e+02|   -5.314568|
|         506|  2.4259e-02|  -10.275992|   -9.816054|   -0.000703|    0.002854|  5.0000e+02|   -5.319742|
|         507|  2.4258e-02|  -10.281140|   -9.822810|   -0.000703|    0.002854|  5.0000e+02|   -5.324891|
|         508|  2.4258e-02|  -10.286261|   -9.829570|   -0.000703|    0.002854|  5.0000e+02|   -5.330012|
|         509|  2.4259e-02|  -10.291356|   -9.836333|   -0.000703|    0.002854|  5.0000e+02|   -5.335107|
|         510|  2.4259e-02|  -10.296423|   -9.843099|   -0.000703|    0.002854|  5.0000e+02|   -5.340174|
|         511|  2.4259e-02|  -10.301463|   -9.849867|   -0.000704|    0.002854|  5.0000e+02|   -5.345214|
|         512|  2.4258e-02|  -10.306474|   -9.856637|   -0.000704|    0.002854|  5.0000e+02|   -5.350224|
|         513|  2.4258e-02|  -10.311455|   -9.863408|   -0.000704|    0.002854|  5.0000e+02|   -5.355206|
|         514|  2.4257e-02|  -10.316408|   -9.870181|   -0.000704|    0.002854|  5.0000e+02|   -5.360158|
|         515|  2.4257e-02|  -10.321330|   -9.876955|   -0.000704|    0.002854|  5.0000e+02|   -5.365081|
|         516|  2.4257e-02|  -10.326222|   -9.883730|   -0.000704|    0.002854|  5.0000e+02|   -5.369973|
|         517|  2.4256e-02|  -10.331083|   -9.890505|   -0.000705|    0.002854|  5.0000e+02|   -5.374834|
|         518|  2.4256e-02|  -10.335913|   -9.897282|   -0.000705|    0.002853|  5.0000e+02|   -5.379664|
|         519|  2.4256e-02|  -10.340713|   -9.904058|   -0.000705|    0.002853|  5.0000e+02|   -5.384464|
|         520|  2.4255e-02|  -10.345481|   -9.910836|   -0.000705|    0.002853|  5.0000e+02|   -5.389232|
|         521|  2.4254e-02|  -10.350218|   -9.917614|   -0.000705|    0.002853|  5.0000e+02|   -5.393969|
|         522|  2.4254e-02|  -10.354923|   -9.924394|   -0.000705|    0.002853|  5.0000e+02|   -5.398674|
|         523|  2.4253e-02|  -10.359598|   -9.931176|   -0.000705|    0.002853|  5.0000e+02|   -5.403349|
|         524|  2.4252e-02|  -10.364241|   -9.937960|   -0.000706|    0.002853|  5.0000e+02|   -5.407992|
|         525|  2.4251e-02|  -10.368852|   -9.944746|   -0.000706|    0.002853|  5.0000e+02|   -5.412603|
|         526|  2.4251e-02|  -10.373432|   -9.951534|   -0.000706|    0.002853|  5.0000e+02|   -5.417183|
|         527|  2.4251e-02|  -10.377981|   -9.958324|   -0.000706|    0.002853|  5.0000e+02|   -5.421732|
|         528|  2.4250e-02|  -10.382498|   -9.965118|   -0.000706|    0.002853|  5.0000e+02|   -5.426249|
|         529|  2.4251e-02|  -10.386983|   -9.971914|   -0.000706|    0.002853|  5.0000e+02|   -5.430734|
|         530|  2.4251e-02|  -10.391437|   -9.978712|   -0.000706|    0.002853|  5.0000e+02|   -5.435187|
|         531|  2.4251e-02|  -10.395857|   -9.985513|   -0.000706|    0.002853|  5.0000e+02|   -5.439608|
|         532|  2.4251e-02|  -10.400246|   -9.992316|   -0.000707|    0.002853|  5.0000e+02|   -5.443997|
|         533|  2.4250e-02|  -10.404601|   -9.999120|   -0.000707|    0.002853|  5.0000e+02|   -5.448352|
|         534|  2.4250e-02|  -10.408924|  -10.005926|   -0.000707|    0.002853|  5.0000e+02|   -5.452675|
|         535|  2.4249e-02|  -10.413213|  -10.012734|   -0.000707|    0.002853|  5.0000e+02|   -5.456964|
|         536|  2.4248e-02|  -10.417469|  -10.019542|   -0.000707|    0.002853|  5.0000e+02|   -5.461220|
|         537|  2.4248e-02|  -10.421692|  -10.026351|   -0.000707|    0.002853|  5.0000e+02|   -5.465442|
|         538|  2.4247e-02|  -10.425880|  -10.033160|   -0.000707|    0.002853|  5.0000e+02|   -5.469631|
|         539|  2.4247e-02|  -10.430035|  -10.039970|   -0.000707|    0.002853|  5.0000e+02|   -5.473786|
|         540|  2.4247e-02|  -10.434156|  -10.046781|   -0.000707|    0.002853|  5.0000e+02|   -5.477907|
|         541|  2.4248e-02|  -10.438244|  -10.053592|   -0.000708|    0.002853|  5.0000e+02|   -5.481995|
|         542|  2.4248e-02|  -10.442297|  -10.060404|   -0.000708|    0.002852|  5.0000e+02|   -5.486048|
|         543|  2.4247e-02|  -10.446318|  -10.067216|   -0.000708|    0.002852|  5.0000e+02|   -5.490069|
|         544|  2.4247e-02|  -10.450304|  -10.074030|   -0.000708|    0.002852|  5.0000e+02|   -5.494055|
|         545|  2.4247e-02|  -10.454258|  -10.080845|   -0.000708|    0.002852|  5.0000e+02|   -5.498009|
|         546|  2.4247e-02|  -10.458178|  -10.087661|   -0.000708|    0.002852|  5.0000e+02|   -5.501929|
|         547|  2.4255e-02|  -10.462066|  -10.094479|   -0.000708|    0.002852|  5.0000e+02|   -5.505817|
|         548|  2.4255e-02|  -10.465920|  -10.101299|   -0.000708|    0.002852|  5.0000e+02|   -5.509671|
|         549|  2.4255e-02|  -10.469742|  -10.108120|   -0.000708|    0.002852|  5.0000e+02|   -5.513493|
|         550|  2.4255e-02|  -10.473531|  -10.114944|   -0.000708|    0.002852|  5.0000e+02|   -5.517282|
|         551|  2.4255e-02|  -10.477287|  -10.121769|   -0.000709|    0.002852|  5.0000e+02|   -5.521038|
|         552|  2.4255e-02|  -10.481011|  -10.128596|   -0.000709|    0.002852|  5.0000e+02|   -5.524762|
|         553|  2.4254e-02|  -10.484702|  -10.135424|   -0.000709|    0.002852|  5.0000e+02|   -5.528453|
|         554|  2.4254e-02|  -10.488360|  -10.142254|   -0.000709|    0.002852|  5.0000e+02|   -5.532111|
|         555|  2.4254e-02|  -10.491987|  -10.149084|   -0.000709|    0.002852|  5.0000e+02|   -5.535737|
|         556|  2.4253e-02|  -10.495580|  -10.155916|   -0.000709|    0.002852|  5.0000e+02|   -5.539331|
|         557|  2.4252e-02|  -10.499142|  -10.162748|   -0.000709|    0.002852|  5.0000e+02|   -5.542893|
|         558|  2.4251e-02|  -10.502671|  -10.169580|   -0.000709|    0.002852|  5.0000e+02|   -5.546422|
|         559|  2.4251e-02|  -10.506168|  -10.176413|   -0.000709|    0.002852|  5.0000e+02|   -5.549919|
|         560|  2.4251e-02|  -10.509634|  -10.183246|   -0.000709|    0.002852|  5.0000e+02|   -5.553385|
|         561|  2.4250e-02|  -10.513067|  -10.190079|   -0.000709|    0.002852|  5.0000e+02|   -5.556818|
|         562|  2.4250e-02|  -10.516469|  -10.196912|   -0.000709|    0.002852|  5.0000e+02|   -5.560220|
|         563|  2.4250e-02|  -10.519840|  -10.203745|   -0.000710|    0.002852|  5.0000e+02|   -5.563591|
|         564|  2.4249e-02|  -10.523180|  -10.210578|   -0.000710|    0.002852|  5.0000e+02|   -5.566931|
|         565|  2.4249e-02|  -10.526489|  -10.217412|   -0.000710|    0.002852|  5.0000e+02|   -5.570240|
|         566|  2.4248e-02|  -10.529768|  -10.224246|   -0.000710|    0.002852|  5.0000e+02|   -5.573519|
|         567|  2.4248e-02|  -10.533017|  -10.231081|   -0.000710|    0.002852|  5.0000e+02|   -5.576768|
|         568|  2.4247e-02|  -10.536236|  -10.237917|   -0.000710|    0.002852|  5.0000e+02|   -5.579987|
|         569|  2.4247e-02|  -10.539426|  -10.244753|   -0.000710|    0.002852|  5.0000e+02|   -5.583177|
|         570|  2.4246e-02|  -10.542586|  -10.251591|   -0.000710|    0.002852|  5.0000e+02|   -5.586337|
|         571|  2.4245e-02|  -10.545718|  -10.258429|   -0.000710|    0.002852|  5.0000e+02|   -5.589469|
|         572|  2.4246e-02|  -10.548820|  -10.265269|   -0.000710|    0.002852|  5.0000e+02|   -5.592571|
|         573|  2.4246e-02|  -10.551895|  -10.272109|   -0.000710|    0.002852|  5.0000e+02|   -5.595646|
|         574|  2.4245e-02|  -10.554941|  -10.278950|   -0.000710|    0.002852|  5.0000e+02|   -5.598692|
|         575|  2.4245e-02|  -10.557960|  -10.285791|   -0.000710|    0.002852|  5.0000e+02|   -5.601711|
|         576|  2.4244e-02|  -10.560951|  -10.292633|   -0.000710|    0.002852|  5.0000e+02|   -5.604701|
|         577|  2.4244e-02|  -10.563914|  -10.299476|   -0.000710|    0.002852|  5.0000e+02|   -5.607665|
|         578|  2.4243e-02|  -10.566850|  -10.306318|   -0.000711|    0.002852|  5.0000e+02|   -5.610601|
|         579|  2.4243e-02|  -10.569760|  -10.313160|   -0.000711|    0.002852|  5.0000e+02|   -5.613511|
|         580|  2.4242e-02|  -10.572643|  -10.320002|   -0.000711|    0.002852|  5.0000e+02|   -5.616394|
|         581|  2.4241e-02|  -10.575500|  -10.326844|   -0.000711|    0.002851|  5.0000e+02|   -5.619251|
|         582|  2.4241e-02|  -10.578331|  -10.333685|   -0.000711|    0.002851|  5.0000e+02|   -5.622082|
|         583|  2.4241e-02|  -10.581136|  -10.340526|   -0.000711|    0.002851|  5.0000e+02|   -5.624887|
|         584|  2.4240e-02|  -10.583917|  -10.347366|   -0.000711|    0.002851|  5.0000e+02|   -5.627668|
|         585|  2.4240e-02|  -10.586672|  -10.354206|   -0.000711|    0.002851|  5.0000e+02|   -5.630423|
|         586|  2.4239e-02|  -10.589403|  -10.361045|   -0.000711|    0.002851|  5.0000e+02|   -5.633154|
|         587|  2.4238e-02|  -10.592110|  -10.367884|   -0.000711|    0.002851|  5.0000e+02|   -5.635861|
|         588|  2.4238e-02|  -10.594793|  -10.374723|   -0.000711|    0.002851|  5.0000e+02|   -5.638543|
|         589|  2.4238e-02|  -10.597452|  -10.381562|   -0.000711|    0.002851|  5.0000e+02|   -5.641203|
|         590|  2.4237e-02|  -10.600088|  -10.388401|   -0.000711|    0.002851|  5.0000e+02|   -5.643839|
|         591|  2.4236e-02|  -10.602702|  -10.395239|   -0.000711|    0.002851|  5.0000e+02|   -5.646453|
|         592|  2.4237e-02|  -10.605294|  -10.402078|   -0.000711|    0.002851|  5.0000e+02|   -5.649045|
|         593|  2.4236e-02|  -10.607863|  -10.408917|   -0.000711|    0.002851|  5.0000e+02|   -5.651614|
|         594|  2.4236e-02|  -10.610411|  -10.415756|   -0.000711|    0.002851|  5.0000e+02|   -5.654162|
|         595|  2.4236e-02|  -10.612937|  -10.422595|   -0.000711|    0.002851|  5.0000e+02|   -5.656688|
|         596|  2.4235e-02|  -10.615442|  -10.429433|   -0.000712|    0.002851|  5.0000e+02|   -5.659193|
|         597|  2.4235e-02|  -10.617927|  -10.436271|   -0.000712|    0.002851|  5.0000e+02|   -5.661678|
|         598|  2.4234e-02|  -10.620391|  -10.443109|   -0.000712|    0.002851|  5.0000e+02|   -5.664142|
|         599|  2.4234e-02|  -10.622835|  -10.449946|   -0.000712|    0.002851|  5.0000e+02|   -5.666586|
|         600|  2.4233e-02|  -10.625260|  -10.456782|   -0.000712|    0.002851|  5.0000e+02|   -5.669010|
|         601|  2.4232e-02|  -10.627664|  -10.463617|   -0.000712|    0.002851|  5.0000e+02|   -5.671415|
|         602|  2.4232e-02|  -10.630050|  -10.470451|   -0.000712|    0.002851|  5.0000e+02|   -5.673801|
|         603|  2.4232e-02|  -10.632417|  -10.477284|   -0.000712|    0.002851|  5.0000e+02|   -5.676168|
|         604|  2.4231e-02|  -10.634765|  -10.484116|   -0.000712|    0.002851|  5.0000e+02|   -5.678516|
|         605|  2.4231e-02|  -10.637096|  -10.490946|   -0.000712|    0.002851|  5.0000e+02|   -5.680846|
|         606|  2.4230e-02|  -10.639408|  -10.497775|   -0.000712|    0.002851|  5.0000e+02|   -5.683159|
|         607|  2.4229e-02|  -10.641703|  -10.504603|   -0.000712|    0.002851|  5.0000e+02|   -5.685454|
|         608|  2.4229e-02|  -10.643981|  -10.511429|   -0.000712|    0.002851|  5.0000e+02|   -5.687731|
|         609|  2.4229e-02|  -10.646241|  -10.518254|   -0.000712|    0.002851|  5.0000e+02|   -5.689992|
|         610|  2.4228e-02|  -10.648486|  -10.525078|   -0.000712|    0.002851|  5.0000e+02|   -5.692237|
|         611|  2.4228e-02|  -10.650714|  -10.531901|   -0.000712|    0.002851|  5.0000e+02|   -5.694465|
|         612|  2.4228e-02|  -10.652926|  -10.538723|   -0.000712|    0.002851|  5.0000e+02|   -5.696677|
[...]
|        1809|  2.4178e-02|  -12.740038|  -13.899382|   -0.000715|    0.002850|  5.0000e+02|   -7.783789|
|        1810|  2.4178e-02|  -12.741892|  -13.901659|   -0.000715|    0.002850|  5.0000e+02|   -7.785642|
|        1811|  2.4178e-02|  -12.743745|  -13.903898|   -0.000715|    0.002850|  5.0000e+02|   -7.787496|
|        1812|  2.4178e-02|  -12.745599|  -13.906148|   -0.000715|    0.002850|  5.0000e+02|   -7.789350|
|        1813|  2.4178e-02|  -12.747452|  -13.908460|   -0.000715|    0.002850|  5.0000e+02|   -7.791203|
|        1814|  2.4177e-02|  -12.749306|  -13.910720|   -0.000715|    0.002850|  5.0000e+02|   -7.793057|
|        1815|  2.4177e-02|  -12.751160|  -13.912969|   -0.000715|    0.002850|  5.0000e+02|   -7.794911|
|        1816|  2.4177e-02|  -12.753014|  -13.915239|   -0.000715|    0.002850|  5.0000e+02|   -7.796765|
|        1817|  2.4177e-02|  -12.754868|  -13.917501|   -0.000715|    0.002850|  5.0000e+02|   -7.798619|
|        1818|  2.4177e-02|  -12.756723|  -13.919816|   -0.000715|    0.002850|  5.0000e+02|   -7.800474|
|        1819|  2.4177e-02|  -12.758577|  -13.922059|   -0.000715|    0.002850|  5.0000e+02|   -7.802328|
|        1820|  2.4176e-02|  -12.760432|  -13.924314|   -0.000715|    0.002850|  5.0000e+02|   -7.804183|
|        1821|  2.4176e-02|  -12.762286|  -13.926654|   -0.000715|    0.002850|  5.0000e+02|   -7.806037|
|        1822|  2.4176e-02|  -12.764141|  -13.928895|   -0.000715|    0.002850|  5.0000e+02|   -7.807892|
|        1823|  2.4176e-02|  -12.765996|  -13.931144|   -0.000715|    0.002850|  5.0000e+02|   -7.809747|
|        1824|  2.4177e-02|  -12.767851|  -13.933436|   -0.000715|    0.002850|  5.0000e+02|   -7.811602|
|        1825|  2.4176e-02|  -12.769706|  -13.935729|   -0.000715|    0.002850|  5.0000e+02|   -7.813457|
|        1826|  2.4176e-02|  -12.771562|  -13.937969|   -0.000715|    0.002850|  5.0000e+02|   -7.815313|
|        1827|  2.4176e-02|  -12.773417|  -13.940305|   -0.000715|    0.002850|  5.0000e+02|   -7.817168|
|        1828|  2.4176e-02|  -12.775272|  -13.942543|   -0.000715|    0.002850|  5.0000e+02|   -7.819023|
|        1829|  2.4176e-02|  -12.777128|  -13.944838|   -0.000715|    0.002850|  5.0000e+02|   -7.820879|
|        1830|  2.4176e-02|  -12.778984|  -13.947149|   -0.000715|    0.002850|  5.0000e+02|   -7.822735|
|        1831|  2.4175e-02|  -12.780840|  -13.949372|   -0.000715|    0.002850|  5.0000e+02|   -7.824591|
|        1832|  2.4175e-02|  -12.782696|  -13.951704|   -0.000715|    0.002850|  5.0000e+02|   -7.826447|
|        1833|  2.4175e-02|  -12.784552|  -13.953951|   -0.000715|    0.002850|  5.0000e+02|   -7.828303|
|        1834|  2.4175e-02|  -12.786408|  -13.956266|   -0.000715|    0.002850|  5.0000e+02|   -7.830159|
|        1835|  2.4175e-02|  -12.788265|  -13.958540|   -0.000715|    0.002850|  5.0000e+02|   -7.832015|
|        1836|  2.4175e-02|  -12.790121|  -13.960797|   -0.000715|    0.002850|  5.0000e+02|   -7.833872|
|        1837|  2.4175e-02|  -12.791978|  -13.963141|   -0.000715|    0.002850|  5.0000e+02|   -7.835728|
CSysSolve::FGMRES(): system solved by initial guess.
|        1838|  2.4173e-02|  -12.793834|  -13.965374|   -0.000715|    0.002850|  5.0000e+02|   -7.837585|
|        1839|  2.4173e-02|  -12.795691|  -13.967909|   -0.000715|    0.002850|  5.0000e+02|   -7.839442|
|        1840|  2.4173e-02|  -12.797550|  -13.977619|   -0.000715|    0.002850|  5.0000e+02|   -7.841301|
|        1841|  2.4173e-02|  -12.799407|  -13.976702|   -0.000715|    0.002850|  5.0000e+02|   -7.843158|
|        1842|  2.4173e-02|  -12.801265|  -13.978118|   -0.000715|    0.002850|  5.0000e+02|   -7.845016|
|        1843|  2.4173e-02|  -12.803123|  -13.980816|   -0.000715|    0.002850|  5.0000e+02|   -7.846874|
|        1844|  2.4172e-02|  -12.804980|  -13.983357|   -0.000715|    0.002850|  5.0000e+02|   -7.848731|
|        1845|  2.4172e-02|  -12.806838|  -13.985274|   -0.000715|    0.002850|  5.0000e+02|   -7.850589|
CSysSolve::FGMRES(): system solved by initial guess.
|        1846|  2.4171e-02|  -12.808695|  -13.986968|   -0.000715|    0.002850|  5.0000e+02|   -7.852446|
|        1847|  2.4170e-02|  -12.810553|  -13.988851|   -0.000715|    0.002850|  5.0000e+02|   -7.854304|
|        1848|  2.4170e-02|  -12.812412|  -13.998214|   -0.000715|    0.002850|  5.0000e+02|   -7.856163|
|        1849|  2.4170e-02|  -12.814270|  -13.996998|   -0.000715|    0.002850|  5.0000e+02|   -7.858021|
|        1850|  2.4170e-02|  -12.816128|  -13.997954|   -0.000715|    0.002850|  5.0000e+02|   -7.859879|
|        1851|  2.4170e-02|  -12.817987|  -14.000251|   -0.000715|    0.002850|  5.0000e+02|   -7.861738|
CSysSolve::FGMRES(): system solved by initial guess.
|        1852|  2.4169e-02|  -12.819845|  -14.002340|   -0.000715|    0.002850|  5.0000e+02|   -7.863596|
|        1853|  2.4168e-02|  -12.821703|  -14.004121|   -0.000715|    0.002850|  5.0000e+02|   -7.865454|
|        1854|  2.4168e-02|  -12.823563|  -14.013149|   -0.000715|    0.002850|  5.0000e+02|   -7.867314|
|        1855|  2.4168e-02|  -12.825422|  -14.011661|   -0.000715|    0.002850|  5.0000e+02|   -7.869173|
|        1856|  2.4168e-02|  -12.827281|  -14.012273|   -0.000715|    0.002850|  5.0000e+02|   -7.871032|
CSysSolve::FGMRES(): system solved by initial guess.
|        1857|  2.4166e-02|  -12.829140|  -14.014265|   -0.000715|    0.002850|  5.0000e+02|   -7.872891|
|        1858|  2.4166e-02|  -12.830998|  -14.016383|   -0.000715|    0.002850|  5.0000e+02|   -7.874749|
|        1859|  2.4166e-02|  -12.832859|  -14.025379|   -0.000715|    0.002850|  5.0000e+02|   -7.876610|
|        1860|  2.4166e-02|  -12.834718|  -14.023694|   -0.000715|    0.002850|  5.0000e+02|   -7.878469|
|        1861|  2.4165e-02|  -12.836577|  -14.024060|   -0.000715|    0.002850|  5.0000e+02|   -7.880328|
CSysSolve::FGMRES(): system solved by initial guess.
|        1862|  2.4164e-02|  -12.838437|  -14.025781|   -0.000715|    0.002850|  5.0000e+02|   -7.882188|
|        1863|  2.4164e-02|  -12.840296|  -14.027601|   -0.000715|    0.002850|  5.0000e+02|   -7.884047|
|        1864|  2.4164e-02|  -12.842157|  -14.036622|   -0.000715|    0.002850|  5.0000e+02|   -7.885908|
|        1865|  2.4164e-02|  -12.844016|  -14.034838|   -0.000715|    0.002850|  5.0000e+02|   -7.887767|
CSysSolve::FGMRES(): system solved by initial guess.
|        1866|  2.4162e-02|  -12.845876|  -14.035009|   -0.000715|    0.002850|  5.0000e+02|   -7.889627|
|        1867|  2.4162e-02|  -12.847736|  -14.036798|   -0.000715|    0.002850|  5.0000e+02|   -7.891487|
|        1868|  2.4162e-02|  -12.849598|  -14.046236|   -0.000715|    0.002850|  5.0000e+02|   -7.893349|
|        1869|  2.4162e-02|  -12.851458|  -14.044605|   -0.000715|    0.002850|  5.0000e+02|   -7.895209|
CSysSolve::FGMRES(): system solved by initial guess.
|        1870|  2.4160e-02|  -12.853318|  -14.044534|   -0.000715|    0.002850|  5.0000e+02|   -7.897069|
|        1871|  2.4160e-02|  -12.855179|  -14.046068|   -0.000715|    0.002850|  5.0000e+02|   -7.898929|
|        1872|  2.4160e-02|  -12.857041|  -14.055422|   -0.000715|    0.002850|  5.0000e+02|   -7.900792|
|        1873|  2.4160e-02|  -12.858901|  -14.053693|   -0.000715|    0.002850|  5.0000e+02|   -7.902652|
CSysSolve::FGMRES(): system solved by initial guess.
|        1874|  2.4159e-02|  -12.860761|  -14.053504|   -0.000715|    0.002850|  5.0000e+02|   -7.904512|
|        1875|  2.4159e-02|  -12.862622|  -14.054864|   -0.000715|    0.002850|  5.0000e+02|   -7.906373|
|        1876|  2.4158e-02|  -12.864485|  -14.064144|   -0.000715|    0.002850|  5.0000e+02|   -7.908236|
CSysSolve::FGMRES(): system solved by initial guess.
|        1877|  2.4157e-02|  -12.866345|  -14.062299|   -0.000715|    0.002850|  5.0000e+02|   -7.910096|
|        1878|  2.4157e-02|  -12.868206|  -14.062250|   -0.000715|    0.002850|  5.0000e+02|   -7.911957|
|        1879|  2.4157e-02|  -12.870070|  -14.071490|   -0.000715|    0.002850|  5.0000e+02|   -7.913821|
|        1880|  2.4157e-02|  -12.871931|  -14.069946|   -0.000715|    0.002850|  5.0000e+02|   -7.915682|
CSysSolve::FGMRES(): system solved by initial guess.
|        1881|  2.4156e-02|  -12.873792|  -14.069794|   -0.000715|    0.002850|  5.0000e+02|   -7.917543|
|        1882|  2.4155e-02|  -12.875654|  -14.070893|   -0.000715|    0.002850|  5.0000e+02|   -7.919405|
|        1883|  2.4155e-02|  -12.877517|  -14.079924|   -0.000715|    0.002850|  5.0000e+02|   -7.921268|
CSysSolve::FGMRES(): system solved by initial guess.
|        1884|  2.4154e-02|  -12.879378|  -14.077883|   -0.000715|    0.002850|  5.0000e+02|   -7.923129|
|        1885|  2.4154e-02|  -12.881240|  -14.077532|   -0.000715|    0.002850|  5.0000e+02|   -7.924991|
|        1886|  2.4154e-02|  -12.883104|  -14.086745|   -0.000715|    0.002850|  5.0000e+02|   -7.926855|
CSysSolve::FGMRES(): system solved by initial guess.
|        1887|  2.4153e-02|  -12.884966|  -14.085134|   -0.000715|    0.002850|  5.0000e+02|   -7.928717|
|        1888|  2.4153e-02|  -12.886828|  -14.084849|   -0.000715|    0.002850|  5.0000e+02|   -7.930579|
|        1889|  2.4152e-02|  -12.888693|  -14.094012|   -0.000715|    0.002850|  5.0000e+02|   -7.932444|
CSysSolve::FGMRES(): system solved by initial guess.
|        1890|  2.4151e-02|  -12.890555|  -14.092142|   -0.000715|    0.002850|  5.0000e+02|   -7.934306|
|        1891|  2.4151e-02|  -12.892417|  -14.091800|   -0.000715|    0.002850|  5.0000e+02|   -7.936168|
|        1892|  2.4151e-02|  -12.894282|  -14.100878|   -0.000715|    0.002850|  5.0000e+02|   -7.938033|
CSysSolve::FGMRES(): system solved by initial guess.
|        1893|  2.4149e-02|  -12.896145|  -14.098880|   -0.000715|    0.002850|  5.0000e+02|   -7.939895|
|        1894|  2.4149e-02|  -12.898007|  -14.098409|   -0.000715|    0.002850|  5.0000e+02|   -7.941758|
|        1895|  2.4149e-02|  -12.899872|  -14.107457|   -0.000715|    0.002850|  5.0000e+02|   -7.943623|
CSysSolve::FGMRES(): system solved by initial guess.
|        1896|  2.4148e-02|  -12.901735|  -14.105442|   -0.000715|    0.002850|  5.0000e+02|   -7.945486|
|        1897|  2.4148e-02|  -12.903598|  -14.104783|   -0.000715|    0.002850|  5.0000e+02|   -7.947349|
CSysSolve::FGMRES(): system solved by initial guess.
|        1898|  2.4147e-02|  -12.905463|  -14.113767|   -0.000715|    0.002850|  5.0000e+02|   -7.949214|
|        1899|  2.4146e-02|  -12.907327|  -14.111939|   -0.000715|    0.002850|  5.0000e+02|   -7.951078|
|        1900|  2.4146e-02|  -12.909192|  -14.119738|   -0.000715|    0.002850|  5.0000e+02|   -7.952943|
CSysSolve::FGMRES(): system solved by initial guess.
|        1901|  2.4145e-02|  -12.911056|  -14.117673|   -0.000715|    0.002850|  5.0000e+02|   -7.954807|
|        1902|  2.4145e-02|  -12.912920|  -14.117204|   -0.000715|    0.002850|  5.0000e+02|   -7.956671|
CSysSolve::FGMRES(): system solved by initial guess.
|        1903|  2.4144e-02|  -12.914786|  -14.126259|   -0.000715|    0.002850|  5.0000e+02|   -7.958537|
|        1904|  2.4144e-02|  -12.916649|  -14.124061|   -0.000715|    0.002850|  5.0000e+02|   -7.960400|
|        1905|  2.4143e-02|  -12.918516|  -14.131879|   -0.000715|    0.002850|  5.0000e+02|   -7.962267|
CSysSolve::FGMRES(): system solved by initial guess.
|        1906|  2.4142e-02|  -12.920380|  -14.129300|   -0.000715|    0.002850|  5.0000e+02|   -7.964131|
|        1907|  2.4142e-02|  -12.922244|  -14.128614|   -0.000715|    0.002850|  5.0000e+02|   -7.965995|
CSysSolve::FGMRES(): system solved by initial guess.
|        1908|  2.4141e-02|  -12.924110|  -14.137562|   -0.000715|    0.002850|  5.0000e+02|   -7.967861|
|        1909|  2.4141e-02|  -12.925974|  -14.135104|   -0.000715|    0.002850|  5.0000e+02|   -7.969725|
|        1910|  2.4140e-02|  -12.927841|  -14.142769|   -0.000715|    0.002850|  5.0000e+02|   -7.971592|
CSysSolve::FGMRES(): system solved by initial guess.
|        1911|  2.4139e-02|  -12.929706|  -14.140041|   -0.000715|    0.002850|  5.0000e+02|   -7.973457|
|        1912|  2.4139e-02|  -12.931571|  -14.139122|   -0.000715|    0.002850|  5.0000e+02|   -7.975322|
CSysSolve::FGMRES(): system solved by initial guess.
|        1913|  2.4138e-02|  -12.933437|  -14.147999|   -0.000715|    0.002850|  5.0000e+02|   -7.977188|
|        1914|  2.4138e-02|  -12.935302|  -14.145480|   -0.000715|    0.002850|  5.0000e+02|   -7.979053|
CSysSolve::FGMRES(): system solved by initial guess.
|        1915|  2.4136e-02|  -12.937169|  -14.153001|   -0.000715|    0.002850|  5.0000e+02|   -7.980920|
|        1916|  2.4136e-02|  -12.939035|  -14.150398|   -0.000715|    0.002850|  5.0000e+02|   -7.982786|
|        1917|  2.4136e-02|  -12.940903|  -14.158433|   -0.000715|    0.002850|  5.0000e+02|   -7.984653|
CSysSolve::FGMRES(): system solved by initial guess.
|        1918|  2.4135e-02|  -12.942768|  -14.155840|   -0.000715|    0.002850|  5.0000e+02|   -7.986519|
|        1919|  2.4135e-02|  -12.944633|  -14.154566|   -0.000715|    0.002850|  5.0000e+02|   -7.988384|
CSysSolve::FGMRES(): system solved by initial guess.
|        1920|  2.4133e-02|  -12.946501|  -14.163321|   -0.000715|    0.002850|  5.0000e+02|   -7.990252|
|        1921|  2.4134e-02|  -12.948366|  -14.160518|   -0.000715|    0.002850|  5.0000e+02|   -7.992117|
CSysSolve::FGMRES(): system solved by initial guess.
|        1922|  2.4132e-02|  -12.950234|  -14.167967|   -0.000715|    0.002850|  5.0000e+02|   -7.993985|
|        1923|  2.4132e-02|  -12.952100|  -14.165215|   -0.000715|    0.002850|  5.0000e+02|   -7.995851|
CSysSolve::FGMRES(): system solved by initial guess.
|        1924|  2.4131e-02|  -12.953969|  -14.173235|   -0.000715|    0.002850|  5.0000e+02|   -7.997720|
|        1925|  2.4131e-02|  -12.955835|  -14.170539|   -0.000715|    0.002850|  5.0000e+02|   -7.999586|
CSysSolve::FGMRES(): system solved by initial guess.
|        1926|  2.4130e-02|  -12.957704|  -14.178512|   -0.000715|    0.002850|  5.0000e+02|   -8.001455|
|        1927|  2.4130e-02|  -12.959571|  -14.175606|   -0.000715|    0.002850|  5.0000e+02|   -8.003322|
CSysSolve::FGMRES(): system solved by initial guess.
|        1928|  2.4129e-02|  -12.961440|  -14.183397|   -0.000715|    0.002850|  5.0000e+02|   -8.005190|
|        1929|  2.4128e-02|  -12.963306|  -14.180456|   -0.000715|    0.002850|  5.0000e+02|   -8.007057|
CSysSolve::FGMRES(): system solved by initial guess.
|        1930|  2.4127e-02|  -12.965175|  -14.188245|   -0.000715|    0.002850|  5.0000e+02|   -8.008926|
|        1931|  2.4127e-02|  -12.967042|  -14.185181|   -0.000715|    0.002850|  5.0000e+02|   -8.010793|
CSysSolve::FGMRES(): system solved by initial guess.
|        1932|  2.4126e-02|  -12.968912|  -14.192883|   -0.000715|    0.002850|  5.0000e+02|   -8.012663|
|        1933|  2.4125e-02|  -12.970779|  -14.189595|   -0.000715|    0.002850|  5.0000e+02|   -8.014530|
CSysSolve::FGMRES(): system solved by initial guess.
|        1934|  2.4124e-02|  -12.972648|  -14.197195|   -0.000715|    0.002850|  5.0000e+02|   -8.016399|
|        1935|  2.4124e-02|  -12.974515|  -14.193861|   -0.000715|    0.002850|  5.0000e+02|   -8.018266|
CSysSolve::FGMRES(): system solved by initial guess.
|        1936|  2.4123e-02|  -12.976385|  -14.201478|   -0.000715|    0.002850|  5.0000e+02|   -8.020136|
|        1937|  2.4123e-02|  -12.978253|  -14.197966|   -0.000715|    0.002850|  5.0000e+02|   -8.022003|
CSysSolve::FGMRES(): system solved by initial guess.
|        1938|  2.4121e-02|  -12.980122|  -14.205630|   -0.000715|    0.002850|  5.0000e+02|   -8.023873|
|        1939|  2.4121e-02|  -12.981990|  -14.202011|   -0.000715|    0.002850|  5.0000e+02|   -8.025741|
CSysSolve::FGMRES(): system solved by initial guess.
|        1940|  2.4120e-02|  -12.983860|  -14.209590|   -0.000715|    0.002850|  5.0000e+02|   -8.027611|
|        1941|  2.4120e-02|  -12.985728|  -14.205924|   -0.000715|    0.002850|  5.0000e+02|   -8.029479|
CSysSolve::FGMRES(): system solved by initial guess.
|        1942|  2.4118e-02|  -12.987598|  -14.213536|   -0.000715|    0.002850|  5.0000e+02|   -8.031349|
|        1943|  2.4119e-02|  -12.989466|  -14.209866|   -0.000715|    0.002850|  5.0000e+02|   -8.033217|
CSysSolve::FGMRES(): system solved by initial guess.
|        1944|  2.4117e-02|  -12.991337|  -14.217411|   -0.000715|    0.002850|  5.0000e+02|   -8.035088|
|        1945|  2.4117e-02|  -12.993205|  -14.213692|   -0.000715|    0.002850|  5.0000e+02|   -8.036956|
CSysSolve::FGMRES(): system solved by initial guess.
|        1946|  2.4116e-02|  -12.995076|  -14.221166|   -0.000715|    0.002850|  5.0000e+02|   -8.038827|
|        1947|  2.4116e-02|  -12.996945|  -14.217569|   -0.000715|    0.002850|  5.0000e+02|   -8.040696|
CSysSolve::FGMRES(): system solved by initial guess.
|        1948|  2.4115e-02|  -12.998816|  -14.225153|   -0.000715|    0.002850|  5.0000e+02|   -8.042567|
|        1949|  2.4115e-02|  -13.000685|  -14.221396|   -0.000715|    0.002850|  5.0000e+02|   -8.044435|

----------------------------- Solver Exit -------------------------------
All convergence criteria satisfied.
+-----------------------------------------------------------------------+
|      Convergence Field     |     Value    |   Criterion  |  Converged |
+-----------------------------------------------------------------------+
|                    rms[Rho]|      -13.0007|         < -13|         Yes|
+-----------------------------------------------------------------------+
-------------------------------------------------------------------------
+-----------------------------------------------------------------------+
|        File Writing Summary       |              Filename             |
+-----------------------------------------------------------------------+
|SU2 restart                        |restart.dat                        |
|                                   |                     (737.927 MB/s)|
|Paraview                           |vol_solution.vtu                   |
|                                   |                      (531.19 MB/s)|
|Paraview surface                   |surface.vtu                        |
|                                   |                     (16.2352 MB/s)|
+-----------------------------------------------------------------------+

Writing the forces breakdown file (forces_breakdown.dat).

------------------------- Solver Postprocessing -------------------------
Deleted CNumerics container.
Deleted CIntegration container.
Deleted CSolver container.
Deleted CIteration container.
Deleted CInterface container.
Deleted CGeometry container.
Deleted CFreeFormDefBox class.
Deleted CSurfaceMovement class.
Deleted CVolumetricMovement class.
Deleted CConfig container.
Deleted nInst container.
Deleted COutput class.
-------------------------------------------------------------------------


-------------------------- Performance Summary --------------------------
Simulation totals:
   Wall-clock time (hrs):   0.0130883 |            Core-hrs:   0.0523534
                   Cores:           4 |          DOFs/point:           5
             Points/core:     3322.25 |   Ghost points/core:         142
 Ghost/Owned Point Ratio:   0.0427421 | 

Preprocessing phase:
       Preproc. Time (s):   0.0788688 |   Preproc. Time (%):    0.167386

Compute phase:
        Compute Time (s):      47.027 |    Compute Time (%):     99.8067
         Iteration count:        1950 |         Avg. s/iter:   0.0241164
     Core-s/iter/Mpoints:     6.96151 |           Mpoints/s:    0.574588

Output phase:
         Output Time (s):   0.0122106 |     Output Time (%):   0.0259149
            Output count:           1 |       Avg. s/output:   0.0122106
 Restart Aggr. BW (MB/s):     5627.51 |           MB/s/core:     1406.88
-------------------------------------------------------------------------


------------------------- Exit Success (SU2_CFD) ------------------------

Invalid MIT-MAGIC-COOKIE-1 key