running

-------------------------------------------------------------------------
|    ___ _   _ ___                                                      |
|   / __| | | |_  )   Release 7.0.8 "Blackbird"                         |
|   \__ \ |_| |/ /                                                      |
|   |___/\___//___|   Suite (Computational Fluid Dynamics Code)         |
|                                                                       |
-------------------------------------------------------------------------
| SU2 Project Website: https://su2code.github.io                        |
|                                                                       |
| The SU2 Project is maintained by the SU2 Foundation                   |
| (http://su2foundation.org)                                            |
-------------------------------------------------------------------------
| Copyright 2012-2020, SU2 Contributors                                 |
|                                                                       |
| SU2 is free software; you can redistribute it and/or                  |
| modify it under the terms of the GNU Lesser General Public            |
| License as published by the Free Software Foundation; either          |
| version 2.1 of the License, or (at your option) any later version.    |
|                                                                       |
| SU2 is distributed in the hope that it will be useful,                |
| but WITHOUT ANY WARRANTY; without even the implied warranty of        |
| MERCHANTABILITY or FITNESS FOR A PARTICULAR PURPOSE. See the GNU      |
| Lesser General Public License for more details.                       |
|                                                                       |
| You should have received a copy of the GNU Lesser General Public      |
| License along with SU2. If not, see <http://www.gnu.org/licenses/>.   |
-------------------------------------------------------------------------

Parsing config file for zone 0

----------------- Physical Case Definition ( Zone 0 ) -------------------
Compressible RANS equations.
Turbulence model: Spalart Allmaras
Hybrid RANS/LES: No Hybrid RANS/LES
Mach number: 0.2.
Angle of attack (AoA): 0 deg, and angle of sideslip (AoS): 0 deg.
Reynolds number: 5e+06. Reference length 1.
No restart solution, use the values at infinity (freestream).
Non-Dimensional simulation (P=1.0, Rho=1.0, T=1.0 at the farfield).
The reference area is 2 m^2.
The semi-span will be computed using the max y(3D) value.
The reference length is 1 m.
Reference origin for moment evaluation is (0, 0, 0).
Surface(s) where the force coefficients are evaluated: wall.

Surface(s) plotted in the output file: wall.
Input mesh file name: flatplate_turb_L4_69x49.su2

--------------- Space Numerical Integration ( Zone 0 ) ------------------
Roe (with entropy fix = 0.001) solver for the flow inviscid terms.
Standard Roe without low-dissipation function.
Second order integration in space, with slope limiter.
No slope-limiting method. 
Scalar upwind solver for the turbulence model.
First order integration in space.
Average of gradients with correction (viscous flow terms).
Average of gradients with correction (viscous turbulence terms).
Gradient for upwind reconstruction: Green-Gauss.
Gradient for viscous and source terms: Green-Gauss.

--------------- Time Numerical Integration  ( Zone 0 ) ------------------
Local time stepping (steady state simulation).
Euler implicit method for the flow equations.
FGMRES is used for solving the linear system.
Using a ILU(0) preconditioning.
Convergence criteria of the linear solver: 1e-10.
Max number of linear iterations: 10.
CFL adaptation. Factor down: 0.1, factor up: 1.2,
                lower limit: 10, upper limit: 500.
Courant-Friedrichs-Lewy number:       10
Euler implicit time integration for the turbulence model.

------------------ Convergence Criteria  ( Zone 0 ) ---------------------
Maximum number of solver subiterations: 99999.
Begin convergence monitoring at iteration 10.
Residual minimum value: 1e-13.
Cauchy series min. value: 1e-06.
Number of Cauchy elements: 100.
Begin windowed time average at iteration 0.

-------------------- Output Information ( Zone 0 ) ----------------------
Writing solution files every 250 iterations.
Writing the convergence history file every 1 inner iterations.
Writing the screen convergence history every 1 inner iterations.
The tabular file format is Tecplot (.dat).
Convergence history file name: history.
Forces breakdown file name: forces_breakdown.dat.
Surface file name: surface.
Volume file name: vol_solution.
Restart file name: restart.dat.

------------- Config File Boundary Information ( Zone 0 ) ---------------
+-----------------------------------------------------------------------+
|                        Marker Type|                        Marker Name|
+-----------------------------------------------------------------------+
|                     Symmetry plane|                           symmetry|
+-----------------------------------------------------------------------+
|                     Inlet boundary|                              inlet|
+-----------------------------------------------------------------------+
|                    Outlet boundary|                             outlet|
|                                   |                           farfield|
+-----------------------------------------------------------------------+
|                     Heat flux wall|                               wall|
+-----------------------------------------------------------------------+

-------------------- Output Preprocessing ( Zone 0 ) --------------------
Screen output fields: INNER_ITER, WALL_TIME, RMS_DENSITY, RMS_ENERGY, LIFT, DRAG, AVG_CFL, REL_RMS_DENSITY
History output group(s): ITER, AERO_COEFF, RMS_RES, REL_RMS_RES, CFL_NUMBER
Convergence field(s): RMS_DENSITY
Warning: No (valid) fields chosen for time convergence monitoring. Time convergence monitoring inactive.
Volume output fields: COORDINATES, SOLUTION, PRIMITIVE

------------------- Geometry Preprocessing ( Zone 0 ) -------------------
Two dimensional problem.
3381 grid points.
3264 volume elements.
5 surface markers.
68 boundary elements in index 0 (Marker = farfield).
48 boundary elements in index 1 (Marker = inlet).
48 boundary elements in index 2 (Marker = outlet).
12 boundary elements in index 3 (Marker = symmetry).
56 boundary elements in index 4 (Marker = wall).
3264 quadrilaterals.
Setting point connectivity.
Renumbering points (Reverse Cuthill McKee Ordering).
Recomputing point connectivity.
Setting element connectivity.
Checking the numerical grid orientation.
All volume elements are correctly orientend.
All surface elements are correctly orientend.
Identifying edges and vertices.
Computing centers of gravity.
Setting the control volume structure.
Area of the computational grid: 2.33333.
Searching for the closest normal neighbors to the surfaces.
Storing a mapping from global to local point index.
Compute the surface curvature.
Max K: 26.5371. Mean K: 0.583945. Standard deviation K: 3.38337.
Checking for periodicity.
Computing mesh quality statistics for the dual control volumes.
+--------------------------------------------------------------+
|           Mesh Quality Metric|        Minimum|        Maximum|
+--------------------------------------------------------------+
|    Orthogonality Angle (deg.)|             90|             90|
|     CV Face Area Aspect Ratio|        1.00044|        42541.7|
|           CV Sub-Volume Ratio|              1|        1.64371|
+--------------------------------------------------------------+
Finding max control volume width.
Wetted area = 0.0429585 m.
Area projection in the x-plane = 0 m, y-plane = 0 m.
Max. coordinate in the x-direction = 2 m, y-direction = 0 m.
Min. coordinate in the x-direction = 0 m, y-direction = 0 m.
Checking if Euler & Symmetry markers are straight/plane:
Boundary marker symmetry is a single straight.
Computing wall distances.

-------------------- Solver Preprocessing ( Zone 0 ) --------------------
Viscous flow: Computing pressure using the ideal gas law
based on the free-stream temperature and a density computed
from the Reynolds number.
Force coefficients computed using free-stream values.

-- Models:
+------------------------------------------------------------------------------+
|          Viscosity Model|        Conductivity Model|              Fluid Model|
+------------------------------------------------------------------------------+
|               SUTHERLAND|          CONSTANT_PRANDTL|             STANDARD_AIR|
+------------------------------------------------------------------------------+
-- Fluid properties:
+------------------------------------------------------------------------------+
|                  Name|    Dim. value|    Ref. value|      Unit|Non-dim. value|
+------------------------------------------------------------------------------+
|        Ref. Viscosity|     1.716e-05|       390.021|   N.s/m^2|   4.39976e-08|
|      Sutherland Temp.|        273.15|           300|         K|        0.9105|
|     Sutherland Const.|         110.4|           300|         K|         0.368|
+------------------------------------------------------------------------------+
|        Prandtl (Lam.)|             -|             -|         -|          0.72|
|       Prandtl (Turb.)|             -|             -|         -|           0.9|
+------------------------------------------------------------------------------+
|          Gas Constant|       287.058|       287.058|  N.m/kg.K|             1|
|      Spec. Heat Ratio|             -|             -|         -|           1.4|
+------------------------------------------------------------------------------+
-- Initial and free-stream conditions:
+------------------------------------------------------------------------------+
|                  Name|    Dim. value|    Ref. value|      Unit|Non-dim. value|
+------------------------------------------------------------------------------+
|       Static Pressure|        114455|        114455|        Pa|             1|
|               Density|       1.32905|       1.32905|    kg/m^3|             1|
|           Temperature|           300|           300|         K|             1|
|          Total Energy|        217705|       86117.4|   m^2/s^2|         2.528|
|            Velocity-X|       69.4448|       293.458|       m/s|      0.236643|
|            Velocity-Y|             0|       293.458|       m/s|             0|
|    Velocity Magnitude|       69.4448|       293.458|       m/s|      0.236643|
+------------------------------------------------------------------------------+
|             Viscosity|   1.84592e-05|       390.021|   N.s/m^2|   4.73286e-08|
|          Conductivity|             -|        111959|   W/m^2.K|             -|
|     Turb. Kin. Energy|       18.0847|       86117.4|   m^2/s^2|       0.00021|
|     Spec. Dissipation|        130209|       293.458|       1/s|       443.706|
+------------------------------------------------------------------------------+
|           Mach Number|             -|             -|         -|           0.2|
|       Reynolds Number|             -|             -|         -|         5e+06|
+------------------------------------------------------------------------------+
Initialize Jacobian structure (Navier-Stokes). MG level: 0.
Initialize Jacobian structure (SA model).

------------------- Numerics Preprocessing ( Zone 0 ) -------------------

----------------- Integration Preprocessing ( Zone 0 ) ------------------

------------------- Iteration Preprocessing ( Zone 0 ) ------------------
Euler/Navier-Stokes/RANS fluid iteration.

------------------------------ Begin Solver -----------------------------

Simulation Run using the Single-zone Driver
+-------------------------------------------------------------------------------------------------------+
|  Inner_Iter|   Time(sec)|    rms[Rho]|   rms[RhoE]|          CL|          CD|     Avg CFL| relrms[Rho]|
+-------------------------------------------------------------------------------------------------------+
|           0|  2.0832e-02|   -7.666421|   -7.131501|   -0.400000|    0.099881|  1.2000e+01|    0.000000|
|           1|  1.9507e-02|   -4.499755|   -3.944191|   -0.254280|    0.094141|  1.4400e+01|    0.000000|
|           2|  1.9437e-02|   -4.720412|   -4.164509|   -0.066954|    0.088062|  1.7280e+01|   -0.220658|
|           3|  1.9336e-02|   -4.904878|   -4.352894|    0.041402|    0.081935|  2.0736e+01|   -0.405124|
|           4|  1.9274e-02|   -5.445463|   -4.896402|    0.065871|    0.075909|  2.4883e+01|   -0.945708|
|           5|  1.9345e-02|   -5.586090|   -5.036108|    0.057164|    0.069947|  2.9860e+01|   -1.086336|
|           6|  1.9270e-02|   -5.583658|   -5.027342|    0.048399|    0.064111|  3.5832e+01|   -1.083904|
|           7|  1.9276e-02|   -5.686175|   -5.126254|    0.044883|    0.058494|  4.2998e+01|   -1.186421|
|           8|  1.9273e-02|   -5.784778|   -5.224932|    0.043233|    0.053182|  5.1598e+01|   -1.285024|
|           9|  1.9233e-02|   -5.832188|   -5.275159|    0.041382|    0.048232|  6.1917e+01|   -1.332434|
|          10|  1.9198e-02|   -5.870689|   -5.316432|    0.038195|    0.043671|  7.4301e+01|   -1.370935|
|          11|  1.9204e-02|   -5.926348|   -5.373554|    0.032911|    0.039501|  8.9161e+01|   -1.426593|
|          12|  1.9187e-02|   -5.990105|   -5.437297|    0.026047|    0.035704|  1.0699e+02|   -1.490350|
|          13|  1.9173e-02|   -6.055273|   -5.502457|    0.019385|    0.032253|  1.2839e+02|   -1.555519|
|          14|  1.9181e-02|   -6.114860|   -5.562939|    0.014656|    0.029117|  1.5407e+02|   -1.615106|
|          15|  1.9173e-02|   -6.173891|   -5.622252|    0.012115|    0.026265|  1.8488e+02|   -1.674136|
|          16|  1.9187e-02|   -6.239197|   -5.687061|    0.010595|    0.023672|  2.2186e+02|   -1.739442|
|          17|  1.9222e-02|   -6.304403|   -5.751967|    0.009016|    0.021313|  2.6623e+02|   -1.804648|
|          18|  1.9242e-02|   -6.367014|   -5.814341|    0.007293|    0.019166|  3.1948e+02|   -1.867260|
|          19|  1.9253e-02|   -6.426384|   -5.873451|    0.005771|    0.017212|  3.8338e+02|   -1.926629|
|          20|  1.9280e-02|   -6.482301|   -5.929229|    0.004565|    0.015434|  4.6005e+02|   -1.982547|
|          21|  1.9302e-02|   -6.533699|   -5.980692|    0.003627|    0.013817|  5.0000e+02|   -2.033944|
|          22|  1.9324e-02|   -6.581004|   -6.028219|    0.002889|    0.012460|  5.0000e+02|   -2.081249|
|          23|  1.9339e-02|   -6.656601|   -6.104338|    0.002350|    0.011379|  5.0000e+02|   -2.156846|
|          24|  1.9357e-02|   -6.753163|   -6.201138|    0.001963|    0.010497|  5.0000e+02|   -2.253408|
|          25|  1.9366e-02|   -6.837624|   -6.285325|    0.001671|    0.009763|  5.0000e+02|   -2.337869|
|          26|  1.9378e-02|   -6.908992|   -6.356602|    0.001451|    0.009142|  5.0000e+02|   -2.409237|
|          27|  1.9390e-02|   -6.971939|   -6.419696|    0.001278|    0.008609|  5.0000e+02|   -2.472184|
|          28|  1.9409e-02|   -7.029407|   -6.477408|    0.001138|    0.008148|  5.0000e+02|   -2.529652|
|          29|  1.9425e-02|   -7.082575|   -6.530867|    0.001024|    0.007746|  5.0000e+02|   -2.582821|
|          30|  1.9440e-02|   -7.132197|   -6.580825|    0.000929|    0.007392|  5.0000e+02|   -2.632443|
|          31|  1.9455e-02|   -7.178969|   -6.627992|    0.000850|    0.007078|  5.0000e+02|   -2.679214|
|          32|  1.9479e-02|   -7.223426|   -6.672931|    0.000782|    0.006800|  5.0000e+02|   -2.723672|
|          33|  1.9510e-02|   -7.265921|   -6.716038|    0.000725|    0.006552|  5.0000e+02|   -2.766166|
|          34|  1.9562e-02|   -7.306635|   -6.757558|    0.000675|    0.006330|  5.0000e+02|   -2.806880|
|          35|  1.9587e-02|   -7.345555|   -6.797556|    0.000633|    0.006133|  5.0000e+02|   -2.845800|
|          36|  1.9621e-02|   -7.382460|   -6.835892|    0.000597|    0.005957|  5.0000e+02|   -2.882706|
|          37|  1.9648e-02|   -7.417010|   -6.872273|    0.000568|    0.005800|  5.0000e+02|   -2.917255|
|          38|  1.9684e-02|   -7.448865|   -6.906346|    0.000543|    0.005660|  5.0000e+02|   -2.949110|
|          39|  1.9701e-02|   -7.477905|   -6.937882|    0.000524|    0.005537|  5.0000e+02|   -2.978151|
|          40|  1.9730e-02|   -7.504250|   -6.966824|    0.000510|    0.005428|  5.0000e+02|   -3.004496|
|          41|  1.9751e-02|   -7.528409|   -6.993448|    0.000500|    0.005332|  5.0000e+02|   -3.028654|
|          42|  1.9778e-02|   -7.550893|   -7.018115|    0.000494|    0.005247|  5.0000e+02|   -3.051139|
|          43|  1.9793e-02|   -7.572341|   -7.041289|    0.000491|    0.005172|  5.0000e+02|   -3.072587|
|          44|  1.9893e-02|   -7.593125|   -7.063377|    0.000491|    0.005106|  5.0000e+02|   -3.093370|
|          45|  1.9908e-02|   -7.613357|   -7.084415|    0.000494|    0.005046|  5.0000e+02|   -3.113602|
|          46|  1.9936e-02|   -7.633200|   -7.104687|    0.000498|    0.004992|  5.0000e+02|   -3.133445|
|          47|  1.9951e-02|   -7.652057|   -7.123609|    0.000504|    0.004943|  5.0000e+02|   -3.152302|
|          48|  1.9966e-02|   -7.670199|   -7.141456|    0.000511|    0.004896|  5.0000e+02|   -3.170444|
|          49|  1.9973e-02|   -7.686586|   -7.157382|    0.000519|    0.004853|  5.0000e+02|   -3.186832|
|          50|  1.9986e-02|   -7.701627|   -7.171588|    0.000527|    0.004811|  5.0000e+02|   -3.201872|
|          51|  1.9989e-02|   -7.714586|   -7.183684|    0.000536|    0.004770|  5.0000e+02|   -3.214831|
|          52|  1.9996e-02|   -7.725550|   -7.193543|    0.000545|    0.004731|  5.0000e+02|   -3.225795|
|          53|  2.0000e-02|   -7.734766|   -7.201601|    0.000554|    0.004693|  5.0000e+02|   -3.235012|
|          54|  2.0000e-02|   -7.741779|   -7.207520|    0.000563|    0.004655|  5.0000e+02|   -3.242024|
|          55|  2.0014e-02|   -7.747325|   -7.211872|    0.000572|    0.004618|  5.0000e+02|   -3.247570|
|          56|  2.0016e-02|   -7.751195|   -7.214761|    0.000582|    0.004581|  5.0000e+02|   -3.251440|
|          57|  2.0017e-02|   -7.753412|   -7.216086|    0.000592|    0.004545|  5.0000e+02|   -3.253658|
|          58|  2.0029e-02|   -7.754465|   -7.216343|    0.000602|    0.004509|  5.0000e+02|   -3.254710|
|          59|  2.0034e-02|   -7.753987|   -7.215339|    0.000613|    0.004473|  5.0000e+02|   -3.254232|
|          60|  2.0042e-02|   -7.752099|   -7.213030|    0.000624|    0.004438|  5.0000e+02|   -3.252344|
|          61|  2.0039e-02|   -7.749095|   -7.209755|    0.000636|    0.004403|  5.0000e+02|   -3.249340|
|          62|  2.0038e-02|   -7.744672|   -7.205270|    0.000649|    0.004368|  5.0000e+02|   -3.244917|
|          63|  2.0043e-02|   -7.738963|   -7.199581|    0.000662|    0.004334|  5.0000e+02|   -3.239208|
|          64|  2.0045e-02|   -7.732255|   -7.192993|    0.000676|    0.004300|  5.0000e+02|   -3.232500|
|          65|  2.0053e-02|   -7.724358|   -7.185338|    0.000690|    0.004267|  5.0000e+02|   -3.224603|
|          66|  2.0055e-02|   -7.715333|   -7.176606|    0.000704|    0.004234|  5.0000e+02|   -3.215578|
|          67|  2.0057e-02|   -7.705476|   -7.167085|    0.000718|    0.004202|  5.0000e+02|   -3.205722|
|          68|  2.0061e-02|   -7.694713|   -7.156720|    0.000733|    0.004170|  5.0000e+02|   -3.194959|
|          69|  2.0064e-02|   -7.683001|   -7.145446|    0.000747|    0.004139|  5.0000e+02|   -3.183246|
|          70|  2.0065e-02|   -7.670611|   -7.133519|    0.000761|    0.004108|  5.0000e+02|   -3.170856|
|          71|  2.0069e-02|   -7.657642|   -7.121051|    0.000774|    0.004077|  5.0000e+02|   -3.157888|
|          72|  2.0070e-02|   -7.644016|   -7.107963|    0.000787|    0.004047|  5.0000e+02|   -3.144261|
|          73|  2.0070e-02|   -7.629886|   -7.094406|    0.000798|    0.004018|  5.0000e+02|   -3.130131|
|          74|  2.0074e-02|   -7.615505|   -7.080627|    0.000809|    0.003989|  5.0000e+02|   -3.115751|
|          75|  2.0082e-02|   -7.600900|   -7.066651|    0.000819|    0.003960|  5.0000e+02|   -3.101146|
|          76|  2.0098e-02|   -7.586083|   -7.052486|    0.000827|    0.003932|  5.0000e+02|   -3.086328|
|          77|  2.0111e-02|   -7.571264|   -7.038338|    0.000834|    0.003905|  5.0000e+02|   -3.071509|
|          78|  2.0118e-02|   -7.556705|   -7.024457|    0.000839|    0.003878|  5.0000e+02|   -3.056951|
|          79|  2.0133e-02|   -7.542523|   -7.010942|    0.000843|    0.003851|  5.0000e+02|   -3.042769|
|          80|  2.0146e-02|   -7.528807|   -6.997874|    0.000844|    0.003825|  5.0000e+02|   -3.029052|
|          81|  2.0162e-02|   -7.515741|   -6.985431|    0.000844|    0.003800|  5.0000e+02|   -3.015986|
|          82|  2.0175e-02|   -7.503594|   -6.973875|    0.000841|    0.003775|  5.0000e+02|   -3.003839|
|          83|  2.0183e-02|   -7.492603|   -6.963435|    0.000837|    0.003750|  5.0000e+02|   -2.992848|
|          84|  2.0191e-02|   -7.482918|   -6.954249|    0.000830|    0.003726|  5.0000e+02|   -2.983163|
|          85|  2.0197e-02|   -7.474643|   -6.946418|    0.000821|    0.003703|  5.0000e+02|   -2.974888|
|          86|  2.0206e-02|   -7.467871|   -6.940037|    0.000810|    0.003680|  5.0000e+02|   -2.968116|
|          87|  2.0218e-02|   -7.462687|   -6.935193|    0.000797|    0.003658|  5.0000e+02|   -2.962932|
|          88|  2.0237e-02|   -7.459163|   -6.931966|    0.000781|    0.003636|  5.0000e+02|   -2.959408|
|          89|  2.0243e-02|   -7.457346|   -6.930405|    0.000764|    0.003614|  5.0000e+02|   -2.957592|
|          90|  2.0254e-02|   -7.457241|   -6.930519|    0.000745|    0.003593|  5.0000e+02|   -2.957486|
|          91|  2.0266e-02|   -7.458810|   -6.932274|    0.000725|    0.003572|  5.0000e+02|   -2.959056|
|          92|  2.0271e-02|   -7.461988|   -6.935608|    0.000704|    0.003552|  5.0000e+02|   -2.962234|
|          93|  2.0283e-02|   -7.466684|   -6.940436|    0.000681|    0.003533|  5.0000e+02|   -2.966930|
|          94|  2.0288e-02|   -7.472788|   -6.946652|    0.000657|    0.003514|  5.0000e+02|   -2.973033|
|          95|  2.0287e-02|   -7.480169|   -6.954130|    0.000632|    0.003495|  5.0000e+02|   -2.980415|
|          96|  2.0289e-02|   -7.488688|   -6.962735|    0.000607|    0.003477|  5.0000e+02|   -2.988934|
|          97|  2.0293e-02|   -7.498194|   -6.972317|    0.000582|    0.003459|  5.0000e+02|   -2.998440|
|          98|  2.0298e-02|   -7.508533|   -6.982723|    0.000556|    0.003441|  5.0000e+02|   -3.008779|
|          99|  2.0304e-02|   -7.519549|   -6.993794|    0.000530|    0.003425|  5.0000e+02|   -3.019794|
|         100|  2.0309e-02|   -7.531087|   -7.005376|    0.000505|    0.003408|  5.0000e+02|   -3.031332|
|         101|  2.0317e-02|   -7.543001|   -7.017318|    0.000479|    0.003392|  5.0000e+02|   -3.043246|
|         102|  2.0314e-02|   -7.555155|   -7.029481|    0.000454|    0.003376|  5.0000e+02|   -3.055400|
|         103|  2.0315e-02|   -7.567431|   -7.041745|    0.000429|    0.003361|  5.0000e+02|   -3.067676|
|         104|  2.0317e-02|   -7.579734|   -7.054012|    0.000405|    0.003346|  5.0000e+02|   -3.079979|
|         105|  2.0320e-02|   -7.591992|   -7.066209|    0.000381|    0.003332|  5.0000e+02|   -3.092237|
|         106|  2.0326e-02|   -7.604161|   -7.078294|    0.000358|    0.003318|  5.0000e+02|   -3.104406|
|         107|  2.0332e-02|   -7.616222|   -7.090251|    0.000335|    0.003304|  5.0000e+02|   -3.116467|
|         108|  2.0346e-02|   -7.628179|   -7.102086|    0.000313|    0.003290|  5.0000e+02|   -3.128424|
|         109|  2.0351e-02|   -7.640054|   -7.113829|    0.000291|    0.003277|  5.0000e+02|   -3.140300|
|         110|  2.0359e-02|   -7.651884|   -7.125521|    0.000270|    0.003265|  5.0000e+02|   -3.152130|
|         111|  2.0365e-02|   -7.663711|   -7.137211|    0.000250|    0.003253|  5.0000e+02|   -3.163957|
|         112|  2.0369e-02|   -7.675579|   -7.148948|    0.000230|    0.003241|  5.0000e+02|   -3.175825|
|         113|  2.0371e-02|   -7.687528|   -7.160777|    0.000210|    0.003229|  5.0000e+02|   -3.187773|
|         114|  2.0371e-02|   -7.699588|   -7.172733|    0.000191|    0.003218|  5.0000e+02|   -3.199833|
|         115|  2.0368e-02|   -7.711779|   -7.184838|    0.000172|    0.003207|  5.0000e+02|   -3.212025|
|         116|  2.0370e-02|   -7.724110|   -7.197103|    0.000154|    0.003196|  5.0000e+02|   -3.224356|
|         117|  2.0378e-02|   -7.736574|   -7.209520|    0.000136|    0.003186|  5.0000e+02|   -3.236819|
|         118|  2.0388e-02|   -7.749147|   -7.222064|    0.000118|    0.003175|  5.0000e+02|   -3.249392|
|         119|  2.0388e-02|   -7.761795|   -7.234698|    0.000101|    0.003166|  5.0000e+02|   -3.262041|
|         120|  2.0384e-02|   -7.774476|   -7.247378|    0.000084|    0.003156|  5.0000e+02|   -3.274722|
|         121|  2.0384e-02|   -7.787142|   -7.260048|    0.000068|    0.003147|  5.0000e+02|   -3.287387|
|         122|  2.0384e-02|   -7.799740|   -7.272655|    0.000052|    0.003138|  5.0000e+02|   -3.299985|
|         123|  2.0384e-02|   -7.812222|   -7.285143|    0.000036|    0.003129|  5.0000e+02|   -3.312467|
|         124|  2.0385e-02|   -7.824543|   -7.297464|    0.000021|    0.003121|  5.0000e+02|   -3.324789|
|         125|  2.0386e-02|   -7.836672|   -7.309581|    0.000006|    0.003112|  5.0000e+02|   -3.336917|
|         126|  2.0387e-02|   -7.848588|   -7.321473|   -0.000009|    0.003104|  5.0000e+02|   -3.348833|
|         127|  2.0385e-02|   -7.860286|   -7.333134|   -0.000023|    0.003096|  5.0000e+02|   -3.360532|
|         128|  2.0384e-02|   -7.871779|   -7.344574|   -0.000037|    0.003089|  5.0000e+02|   -3.372024|
|         129|  2.0384e-02|   -7.883091|   -7.355822|   -0.000051|    0.003082|  5.0000e+02|   -3.383337|
|         130|  2.0383e-02|   -7.894262|   -7.366918|   -0.000064|    0.003074|  5.0000e+02|   -3.394508|
|         131|  2.0382e-02|   -7.905338|   -7.377913|   -0.000077|    0.003067|  5.0000e+02|   -3.405584|
|         132|  2.0382e-02|   -7.916371|   -7.388863|   -0.000090|    0.003061|  5.0000e+02|   -3.416617|
|         133|  2.0382e-02|   -7.927414|   -7.399824|   -0.000102|    0.003054|  5.0000e+02|   -3.427659|
|         134|  2.0387e-02|   -7.938514|   -7.410848|   -0.000114|    0.003048|  5.0000e+02|   -3.438759|
|         135|  2.0394e-02|   -7.949714|   -7.421982|   -0.000126|    0.003042|  5.0000e+02|   -3.449959|
|         136|  2.0401e-02|   -7.961045|   -7.433259|   -0.000138|    0.003036|  5.0000e+02|   -3.461291|
|         137|  2.0405e-02|   -7.972528|   -7.444700|   -0.000149|    0.003030|  5.0000e+02|   -3.472773|
|         138|  2.0408e-02|   -7.984170|   -7.456316|   -0.000160|    0.003024|  5.0000e+02|   -3.484415|
|         139|  2.0414e-02|   -7.995966|   -7.468099|   -0.000171|    0.003019|  5.0000e+02|   -3.496211|
|         140|  2.0416e-02|   -8.007900|   -7.480034|   -0.000182|    0.003013|  5.0000e+02|   -3.508146|
|         141|  2.0449e-02|   -8.019946|   -7.492090|   -0.000192|    0.003008|  5.0000e+02|   -3.520192|
|         142|  2.0453e-02|   -8.032070|   -7.504231|   -0.000203|    0.003003|  5.0000e+02|   -3.532315|
|         143|  2.0457e-02|   -8.044231|   -7.516414|   -0.000213|    0.002998|  5.0000e+02|   -3.544477|
|         144|  2.0462e-02|   -8.056390|   -7.528595|   -0.000222|    0.002993|  5.0000e+02|   -3.556635|
|         145|  2.0465e-02|   -8.068506|   -7.540731|   -0.000232|    0.002989|  5.0000e+02|   -3.568751|
|         146|  2.0475e-02|   -8.080545|   -7.552783|   -0.000241|    0.002984|  5.0000e+02|   -3.580790|
|         147|  2.0478e-02|   -8.092481|   -7.564724|   -0.000251|    0.002980|  5.0000e+02|   -3.592726|
|         148|  2.0482e-02|   -8.104297|   -7.576534|   -0.000260|    0.002976|  5.0000e+02|   -3.604542|
|         149|  2.0486e-02|   -8.115988|   -7.588208|   -0.000268|    0.002972|  5.0000e+02|   -3.616234|
|         150|  2.0487e-02|   -8.127562|   -7.599753|   -0.000277|    0.002968|  5.0000e+02|   -3.627807|
|         151|  2.0493e-02|   -8.139035|   -7.611188|   -0.000285|    0.002964|  5.0000e+02|   -3.639280|
|         152|  2.0500e-02|   -8.150434|   -7.622541|   -0.000293|    0.002960|  5.0000e+02|   -3.650679|
|         153|  2.0502e-02|   -8.161792|   -7.633849|   -0.000301|    0.002957|  5.0000e+02|   -3.662037|
|         154|  2.0501e-02|   -8.173147|   -7.645151|   -0.000309|    0.002953|  5.0000e+02|   -3.673392|
|         155|  2.0499e-02|   -8.184535|   -7.656488|   -0.000317|    0.002950|  5.0000e+02|   -3.684780|
|         156|  2.0499e-02|   -8.195992|   -7.667898|   -0.000324|    0.002946|  5.0000e+02|   -3.696237|
|         157|  2.0498e-02|   -8.207547|   -7.679414|   -0.000331|    0.002943|  5.0000e+02|   -3.707793|
|         158|  2.0495e-02|   -8.219224|   -7.691060|   -0.000338|    0.002940|  5.0000e+02|   -3.719470|
|         159|  2.0496e-02|   -8.231036|   -7.702852|   -0.000345|    0.002937|  5.0000e+02|   -3.731281|
|         160|  2.0494e-02|   -8.242987|   -7.714794|   -0.000352|    0.002934|  5.0000e+02|   -3.743233|
|         161|  2.0495e-02|   -8.255073|   -7.726882|   -0.000358|    0.002931|  5.0000e+02|   -3.755319|
|         162|  2.0493e-02|   -8.267279|   -7.739100|   -0.000365|    0.002928|  5.0000e+02|   -3.767525|
|         163|  2.0491e-02|   -8.279584|   -7.751424|   -0.000371|    0.002926|  5.0000e+02|   -3.779830|
|         164|  2.0490e-02|   -8.291961|   -7.763826|   -0.000377|    0.002923|  5.0000e+02|   -3.792206|
|         165|  2.0489e-02|   -8.304377|   -7.776272|   -0.000383|    0.002921|  5.0000e+02|   -3.804623|
|         166|  2.0490e-02|   -8.316801|   -7.788726|   -0.000389|    0.002918|  5.0000e+02|   -3.817046|
|         167|  2.0487e-02|   -8.329201|   -7.801154|   -0.000395|    0.002916|  5.0000e+02|   -3.829446|
|         168|  2.0487e-02|   -8.341550|   -7.813527|   -0.000401|    0.002913|  5.0000e+02|   -3.841795|
|         169|  2.0486e-02|   -8.353827|   -7.825822|   -0.000406|    0.002911|  5.0000e+02|   -3.854072|
|         170|  2.0484e-02|   -8.366018|   -7.838024|   -0.000412|    0.002909|  5.0000e+02|   -3.866264|
|         171|  2.0484e-02|   -8.378120|   -7.850127|   -0.000417|    0.002907|  5.0000e+02|   -3.878365|
|         172|  2.0483e-02|   -8.390135|   -7.862137|   -0.000422|    0.002905|  5.0000e+02|   -3.890380|
|         173|  2.0481e-02|   -8.402077|   -7.874067|   -0.000427|    0.002903|  5.0000e+02|   -3.902322|
|         174|  2.0481e-02|   -8.413965|   -7.885938|   -0.000432|    0.002901|  5.0000e+02|   -3.914211|
|         175|  2.0481e-02|   -8.425825|   -7.897777|   -0.000436|    0.002899|  5.0000e+02|   -3.926070|
|         176|  2.0482e-02|   -8.437683|   -7.909614|   -0.000441|    0.002897|  5.0000e+02|   -3.937928|
|         177|  2.0480e-02|   -8.449569|   -7.921481|   -0.000445|    0.002896|  5.0000e+02|   -3.949814|
|         178|  2.0480e-02|   -8.461509|   -7.933407|   -0.000450|    0.002894|  5.0000e+02|   -3.961754|
|         179|  2.0480e-02|   -8.473526|   -7.945417|   -0.000454|    0.002892|  5.0000e+02|   -3.973772|
|         180|  2.0477e-02|   -8.485639|   -7.957529|   -0.000458|    0.002891|  5.0000e+02|   -3.985884|
|         181|  2.0477e-02|   -8.497857|   -7.969757|   -0.000462|    0.002889|  5.0000e+02|   -3.998103|
|         182|  2.0478e-02|   -8.510185|   -7.982105|   -0.000466|    0.002888|  5.0000e+02|   -4.010430|
|         183|  2.0478e-02|   -8.522619|   -7.994568|   -0.000470|    0.002886|  5.0000e+02|   -4.022864|
|         184|  2.0477e-02|   -8.535147|   -8.007135|   -0.000474|    0.002885|  5.0000e+02|   -4.035393|
|         185|  2.0476e-02|   -8.547754|   -8.019788|   -0.000477|    0.002883|  5.0000e+02|   -4.047999|
|         186|  2.0474e-02|   -8.560417|   -8.032505|   -0.000481|    0.002882|  5.0000e+02|   -4.060663|
|         187|  2.0473e-02|   -8.573113|   -8.045258|   -0.000484|    0.002881|  5.0000e+02|   -4.073359|
|         188|  2.0473e-02|   -8.585816|   -8.058021|   -0.000488|    0.002879|  5.0000e+02|   -4.086062|
|         189|  2.0472e-02|   -8.598502|   -8.070766|   -0.000491|    0.002878|  5.0000e+02|   -4.098747|
|         190|  2.0473e-02|   -8.611149|   -8.083472|   -0.000494|    0.002877|  5.0000e+02|   -4.111394|
|         191|  2.0472e-02|   -8.623740|   -8.096119|   -0.000498|    0.002876|  5.0000e+02|   -4.123986|
|         192|  2.0473e-02|   -8.636265|   -8.108696|   -0.000501|    0.002875|  5.0000e+02|   -4.136511|
|         193|  2.0473e-02|   -8.648720|   -8.121198|   -0.000504|    0.002874|  5.0000e+02|   -4.148966|
|         194|  2.0471e-02|   -8.661107|   -8.133629|   -0.000507|    0.002873|  5.0000e+02|   -4.161353|
|         195|  2.0470e-02|   -8.673436|   -8.145998|   -0.000509|    0.002872|  5.0000e+02|   -4.173682|
|         196|  2.0471e-02|   -8.685721|   -8.158321|   -0.000512|    0.002871|  5.0000e+02|   -4.185967|
|         197|  2.0470e-02|   -8.697982|   -8.170620|   -0.000515|    0.002870|  5.0000e+02|   -4.198227|
|         198|  2.0472e-02|   -8.710238|   -8.182918|   -0.000517|    0.002869|  5.0000e+02|   -4.210484|
|         199|  2.0472e-02|   -8.722514|   -8.195238|   -0.000520|    0.002868|  5.0000e+02|   -4.222759|
|         200|  2.0472e-02|   -8.734829|   -8.207604|   -0.000522|    0.002867|  5.0000e+02|   -4.235074|
|         201|  2.0473e-02|   -8.747201|   -8.220035|   -0.000525|    0.002866|  5.0000e+02|   -4.247446|
|         202|  2.0475e-02|   -8.759644|   -8.232548|   -0.000527|    0.002865|  5.0000e+02|   -4.259889|
|         203|  2.0475e-02|   -8.772167|   -8.245151|   -0.000530|    0.002865|  5.0000e+02|   -4.272413|
|         204|  2.0475e-02|   -8.784773|   -8.257849|   -0.000532|    0.002864|  5.0000e+02|   -4.285018|
|         205|  2.0475e-02|   -8.797459|   -8.270638|   -0.000534|    0.002863|  5.0000e+02|   -4.297704|
|         206|  2.0476e-02|   -8.810217|   -8.283511|   -0.000536|    0.002862|  5.0000e+02|   -4.310462|
|         207|  2.0476e-02|   -8.823033|   -8.296454|   -0.000538|    0.002862|  5.0000e+02|   -4.323278|
|         208|  2.0478e-02|   -8.835891|   -8.309448|   -0.000540|    0.002861|  5.0000e+02|   -4.336136|
|         209|  2.0477e-02|   -8.848772|   -8.322473|   -0.000542|    0.002860|  5.0000e+02|   -4.349017|
|         210|  2.0478e-02|   -8.861655|   -8.335507|   -0.000544|    0.002860|  5.0000e+02|   -4.361901|
|         211|  2.0479e-02|   -8.874522|   -8.348530|   -0.000546|    0.002859|  5.0000e+02|   -4.374768|
|         212|  2.0478e-02|   -8.887356|   -8.361523|   -0.000548|    0.002858|  5.0000e+02|   -4.387601|
|         213|  2.0479e-02|   -8.900142|   -8.374473|   -0.000549|    0.002858|  5.0000e+02|   -4.400388|
|         214|  2.0480e-02|   -8.912873|   -8.387368|   -0.000551|    0.002857|  5.0000e+02|   -4.413118|
|         215|  2.0480e-02|   -8.925544|   -8.400206|   -0.000553|    0.002857|  5.0000e+02|   -4.425790|
|         216|  2.0484e-02|   -8.938157|   -8.412988|   -0.000554|    0.002856|  5.0000e+02|   -4.438403|
|         217|  2.0485e-02|   -8.950719|   -8.425722|   -0.000556|    0.002856|  5.0000e+02|   -4.450965|
|         218|  2.0486e-02|   -8.963241|   -8.438421|   -0.000558|    0.002855|  5.0000e+02|   -4.463486|
|         219|  2.0484e-02|   -8.975736|   -8.451099|   -0.000559|    0.002855|  5.0000e+02|   -4.475982|
|         220|  2.0484e-02|   -8.988222|   -8.463776|   -0.000560|    0.002854|  5.0000e+02|   -4.488467|
|         221|  2.0484e-02|   -9.000714|   -8.476471|   -0.000562|    0.002854|  5.0000e+02|   -4.500959|
|         222|  2.0488e-02|   -9.013228|   -8.489201|   -0.000563|    0.002853|  5.0000e+02|   -4.513474|
|         223|  2.0488e-02|   -9.025779|   -8.501983|   -0.000565|    0.002853|  5.0000e+02|   -4.526025|
|         224|  2.0489e-02|   -9.038377|   -8.514829|   -0.000566|    0.002852|  5.0000e+02|   -4.538622|
|         225|  2.0487e-02|   -9.051028|   -8.527747|   -0.000567|    0.002852|  5.0000e+02|   -4.551273|
|         226|  2.0485e-02|   -9.063734|   -8.540740|   -0.000568|    0.002852|  5.0000e+02|   -4.563980|
|         227|  2.0485e-02|   -9.076494|   -8.553806|   -0.000570|    0.002851|  5.0000e+02|   -4.576739|
|         228|  2.0484e-02|   -9.089299|   -8.566940|   -0.000571|    0.002851|  5.0000e+02|   -4.589544|
|         229|  2.0482e-02|   -9.102140|   -8.580129|   -0.000572|    0.002851|  5.0000e+02|   -4.602385|
|         230|  2.0482e-02|   -9.115003|   -8.593361|   -0.000573|    0.002850|  5.0000e+02|   -4.615248|
|         231|  2.0487e-02|   -9.127872|   -8.606619|   -0.000574|    0.002850|  5.0000e+02|   -4.628118|
|         232|  2.0491e-02|   -9.140733|   -8.619886|   -0.000575|    0.002850|  5.0000e+02|   -4.640978|
|         233|  2.0492e-02|   -9.153568|   -8.633145|   -0.000576|    0.002849|  5.0000e+02|   -4.653813|
|         234|  2.0492e-02|   -9.166364|   -8.646382|   -0.000577|    0.002849|  5.0000e+02|   -4.666610|
|         235|  2.0490e-02|   -9.179111|   -8.659585|   -0.000578|    0.002849|  5.0000e+02|   -4.679357|
|         236|  2.0490e-02|   -9.191801|   -8.672747|   -0.000579|    0.002848|  5.0000e+02|   -4.692047|
|         237|  2.0491e-02|   -9.204430|   -8.685863|   -0.000580|    0.002848|  5.0000e+02|   -4.704676|
|         238|  2.0494e-02|   -9.216999|   -8.698936|   -0.000581|    0.002848|  5.0000e+02|   -4.717244|
|         239|  2.0498e-02|   -9.229511|   -8.711971|   -0.000582|    0.002848|  5.0000e+02|   -4.729757|
|         240|  2.0497e-02|   -9.241975|   -8.724978|   -0.000582|    0.002847|  5.0000e+02|   -4.742221|
|         241|  2.0498e-02|   -9.254401|   -8.737968|   -0.000583|    0.002847|  5.0000e+02|   -4.754646|
|         242|  2.0500e-02|   -9.266800|   -8.750957|   -0.000584|    0.002847|  5.0000e+02|   -4.767045|
|         243|  2.0499e-02|   -9.279183|   -8.763959|   -0.000585|    0.002847|  5.0000e+02|   -4.779429|
|         244|  2.0499e-02|   -9.291564|   -8.776989|   -0.000586|    0.002846|  5.0000e+02|   -4.791809|
|         245|  2.0497e-02|   -9.303950|   -8.790059|   -0.000586|    0.002846|  5.0000e+02|   -4.804195|
|         246|  2.0498e-02|   -9.316349|   -8.803181|   -0.000587|    0.002846|  5.0000e+02|   -4.816594|
|         247|  2.0499e-02|   -9.328765|   -8.816359|   -0.000588|    0.002846|  5.0000e+02|   -4.829010|
|         248|  2.0500e-02|   -9.341198|   -8.829598|   -0.000588|    0.002846|  5.0000e+02|   -4.841444|
|         249|  2.0500e-02|   -9.353646|   -8.842895|   -0.000589|    0.002845|  5.0000e+02|   -4.853891|
|         250|  2.0499e-02|   -9.366102|   -8.856246|   -0.000590|    0.002845|  5.0000e+02|   -4.866347|
+-----------------------------------------------------------------------+
|        File Writing Summary       |              Filename             |
+-----------------------------------------------------------------------+
|SU2 restart                        |restart.dat                        |
|                                   |                     (912.724 MB/s)|
|Paraview                           |vol_solution.vtu                   |
|                                   |                     (351.248 MB/s)|
|Paraview surface                   |surface.vtu                        |
|                                   |                     (13.0278 MB/s)|
+-----------------------------------------------------------------------+

Writing the forces breakdown file (forces_breakdown.dat).
+-------------------------------------------------------------------------------------------------------+
|  Inner_Iter|   Time(sec)|    rms[Rho]|   rms[RhoE]|          CL|          CD|     Avg CFL| relrms[Rho]|
+-------------------------------------------------------------------------------------------------------+
|         251|  2.0540e-02|   -9.378556|   -8.869643|   -0.000590|    0.002845|  5.0000e+02|   -4.878802|
|         252|  2.0540e-02|   -9.390998|   -8.883074|   -0.000591|    0.002845|  5.0000e+02|   -4.891244|
|         253|  2.0541e-02|   -9.403415|   -8.896527|   -0.000591|    0.002845|  5.0000e+02|   -4.903660|
|         254|  2.0545e-02|   -9.415793|   -8.909987|   -0.000592|    0.002845|  5.0000e+02|   -4.916038|
|         255|  2.0549e-02|   -9.428120|   -8.923443|   -0.000592|    0.002844|  5.0000e+02|   -4.928365|
|         256|  2.0554e-02|   -9.440383|   -8.936881|   -0.000593|    0.002844|  5.0000e+02|   -4.940629|
|         257|  2.0556e-02|   -9.452575|   -8.950292|   -0.000594|    0.002844|  5.0000e+02|   -4.952820|
|         258|  2.0557e-02|   -9.464687|   -8.963671|   -0.000594|    0.002844|  5.0000e+02|   -4.964933|
|         259|  2.0558e-02|   -9.476717|   -8.977014|   -0.000594|    0.002844|  5.0000e+02|   -4.976962|
|         260|  2.0557e-02|   -9.488663|   -8.990322|   -0.000595|    0.002844|  5.0000e+02|   -4.988908|
|         261|  2.0558e-02|   -9.500527|   -9.003598|   -0.000595|    0.002844|  5.0000e+02|   -5.000773|
|         262|  2.0558e-02|   -9.512314|   -9.016852|   -0.000596|    0.002844|  5.0000e+02|   -5.012560|
|         263|  2.0561e-02|   -9.524030|   -9.030092|   -0.000596|    0.002843|  5.0000e+02|   -5.024276|
|         264|  2.0560e-02|   -9.535682|   -9.043329|   -0.000597|    0.002843|  5.0000e+02|   -5.035928|
|         265|  2.0560e-02|   -9.547277|   -9.056576|   -0.000597|    0.002843|  5.0000e+02|   -5.047522|
|         266|  2.0560e-02|   -9.558821|   -9.069844|   -0.000598|    0.002843|  5.0000e+02|   -5.059067|
|         267|  2.0560e-02|   -9.570320|   -9.083144|   -0.000598|    0.002843|  5.0000e+02|   -5.070566|
|         268|  2.0560e-02|   -9.581777|   -9.096483|   -0.000598|    0.002843|  5.0000e+02|   -5.082023|
|         269|  2.0559e-02|   -9.593194|   -9.109868|   -0.000599|    0.002843|  5.0000e+02|   -5.093439|
|         270|  2.0560e-02|   -9.604568|   -9.123299|   -0.000599|    0.002843|  5.0000e+02|   -5.104813|
|         271|  2.0559e-02|   -9.615896|   -9.136778|   -0.000599|    0.002843|  5.0000e+02|   -5.116141|
|         272|  2.0560e-02|   -9.627171|   -9.150298|   -0.000600|    0.002842|  5.0000e+02|   -5.127417|
|         273|  2.0562e-02|   -9.638386|   -9.163855|   -0.000600|    0.002842|  5.0000e+02|   -5.138632|
|         274|  2.0561e-02|   -9.649531|   -9.177439|   -0.000600|    0.002842|  5.0000e+02|   -5.149777|
|         275|  2.0564e-02|   -9.660595|   -9.191039|   -0.000601|    0.002842|  5.0000e+02|   -5.160841|
|         276|  2.0565e-02|   -9.671569|   -9.204645|   -0.000601|    0.002842|  5.0000e+02|   -5.171814|
|         277|  2.0564e-02|   -9.682442|   -9.218247|   -0.000601|    0.002842|  5.0000e+02|   -5.182687|
|         278|  2.0564e-02|   -9.693205|   -9.231833|   -0.000601|    0.002842|  5.0000e+02|   -5.193451|
|         279|  2.0564e-02|   -9.703853|   -9.245398|   -0.000602|    0.002842|  5.0000e+02|   -5.204098|
|         280|  2.0565e-02|   -9.714378|   -9.258935|   -0.000602|    0.002842|  5.0000e+02|   -5.214624|
|         281|  2.0567e-02|   -9.724779|   -9.272442|   -0.000602|    0.002842|  5.0000e+02|   -5.225025|
|         282|  2.0568e-02|   -9.735055|   -9.285920|   -0.000602|    0.002842|  5.0000e+02|   -5.235300|
|         283|  2.0568e-02|   -9.745206|   -9.299371|   -0.000603|    0.002842|  5.0000e+02|   -5.245451|
|         284|  2.0568e-02|   -9.755234|   -9.312801|   -0.000603|    0.002842|  5.0000e+02|   -5.255480|
|         285|  2.0566e-02|   -9.765144|   -9.326218|   -0.000603|    0.002842|  5.0000e+02|   -5.265390|
|         286|  2.0569e-02|   -9.774939|   -9.339632|   -0.000603|    0.002841|  5.0000e+02|   -5.275184|
|         287|  2.0570e-02|   -9.784623|   -9.353050|   -0.000604|    0.002841|  5.0000e+02|   -5.284869|
|         288|  2.0570e-02|   -9.794200|   -9.366483|   -0.000604|    0.002841|  5.0000e+02|   -5.294445|
|         289|  2.0569e-02|   -9.803672|   -9.379939|   -0.000604|    0.002841|  5.0000e+02|   -5.303918|
|         290|  2.0570e-02|   -9.813042|   -9.393424|   -0.000604|    0.002841|  5.0000e+02|   -5.313288|
|         291|  2.0571e-02|   -9.822309|   -9.406943|   -0.000604|    0.002841|  5.0000e+02|   -5.322554|
|         292|  2.0571e-02|   -9.831472|   -9.420497|   -0.000605|    0.002841|  5.0000e+02|   -5.331718|
|         293|  2.0573e-02|   -9.840529|   -9.434086|   -0.000605|    0.002841|  5.0000e+02|   -5.340774|
|         294|  2.0573e-02|   -9.849475|   -9.447706|   -0.000605|    0.002841|  5.0000e+02|   -5.349721|
|         295|  2.0571e-02|   -9.858307|   -9.461353|   -0.000605|    0.002841|  5.0000e+02|   -5.358553|
|         296|  2.0572e-02|   -9.867020|   -9.475019|   -0.000605|    0.002841|  5.0000e+02|   -5.367265|
|         297|  2.0571e-02|   -9.875608|   -9.488695|   -0.000605|    0.002841|  5.0000e+02|   -5.375853|
|         298|  2.0572e-02|   -9.884066|   -9.502374|   -0.000606|    0.002841|  5.0000e+02|   -5.384312|
|         299|  2.0574e-02|   -9.892391|   -9.516045|   -0.000606|    0.002841|  5.0000e+02|   -5.392637|
|         300|  2.0573e-02|   -9.900579|   -9.529702|   -0.000606|    0.002841|  5.0000e+02|   -5.400825|
|         301|  2.0576e-02|   -9.908628|   -9.543337|   -0.000606|    0.002841|  5.0000e+02|   -5.408874|
|         302|  2.0576e-02|   -9.916538|   -9.556947|   -0.000606|    0.002841|  5.0000e+02|   -5.416783|
|         303|  2.0576e-02|   -9.924308|   -9.570529|   -0.000606|    0.002841|  5.0000e+02|   -5.424553|
|         304|  2.0575e-02|   -9.931940|   -9.584083|   -0.000606|    0.002841|  5.0000e+02|   -5.432186|
|         305|  2.0573e-02|   -9.939438|   -9.597612|   -0.000606|    0.002841|  5.0000e+02|   -5.439683|
|         306|  2.0573e-02|   -9.946803|   -9.611119|   -0.000607|    0.002841|  5.0000e+02|   -5.447049|
|         307|  2.0572e-02|   -9.954041|   -9.624612|   -0.000607|    0.002841|  5.0000e+02|   -5.454287|
|         308|  2.0570e-02|   -9.961156|   -9.638096|   -0.000607|    0.002841|  5.0000e+02|   -5.461401|
|         309|  2.0571e-02|   -9.968150|   -9.651580|   -0.000607|    0.002841|  5.0000e+02|   -5.468396|
|         310|  2.0569e-02|   -9.975030|   -9.665070|   -0.000607|    0.002840|  5.0000e+02|   -5.475275|
|         311|  2.0569e-02|   -9.981797|   -9.678573|   -0.000607|    0.002840|  5.0000e+02|   -5.482042|
|         312|  2.0568e-02|   -9.988454|   -9.692094|   -0.000607|    0.002840|  5.0000e+02|   -5.488700|
|         313|  2.0566e-02|   -9.995004|   -9.705636|   -0.000607|    0.002840|  5.0000e+02|   -5.495250|
|         314|  2.0566e-02|  -10.001449|   -9.719200|   -0.000607|    0.002840|  5.0000e+02|   -5.501695|
|         315|  2.0564e-02|  -10.007790|   -9.732787|   -0.000607|    0.002840|  5.0000e+02|   -5.508035|
|         316|  2.0564e-02|  -10.014026|   -9.746393|   -0.000608|    0.002840|  5.0000e+02|   -5.514271|
|         317|  2.0564e-02|  -10.020159|   -9.760013|   -0.000608|    0.002840|  5.0000e+02|   -5.520404|
|         318|  2.0564e-02|  -10.026188|   -9.773642|   -0.000608|    0.002840|  5.0000e+02|   -5.526434|
|         319|  2.0564e-02|  -10.032115|   -9.787273|   -0.000608|    0.002840|  5.0000e+02|   -5.532361|
|         320|  2.0562e-02|  -10.037939|   -9.800898|   -0.000608|    0.002840|  5.0000e+02|   -5.538185|
|         321|  2.0562e-02|  -10.043662|   -9.814510|   -0.000608|    0.002840|  5.0000e+02|   -5.543907|
|         322|  2.0561e-02|  -10.049284|   -9.828103|   -0.000608|    0.002840|  5.0000e+02|   -5.549529|
|         323|  2.0561e-02|  -10.054807|   -9.841671|   -0.000608|    0.002840|  5.0000e+02|   -5.555053|
|         324|  2.0562e-02|  -10.060234|   -9.855211|   -0.000608|    0.002840|  5.0000e+02|   -5.560480|
|         325|  2.0562e-02|  -10.065567|   -9.868720|   -0.000608|    0.002840|  5.0000e+02|   -5.565813|
|         326|  2.0562e-02|  -10.070809|   -9.882198|   -0.000608|    0.002840|  5.0000e+02|   -5.571055|
|         327|  2.0562e-02|  -10.075964|   -9.895646|   -0.000608|    0.002840|  5.0000e+02|   -5.576209|
|         328|  2.0563e-02|  -10.081034|   -9.909068|   -0.000608|    0.002840|  5.0000e+02|   -5.581280|
|         329|  2.0566e-02|  -10.086025|   -9.922468|   -0.000608|    0.002840|  5.0000e+02|   -5.586270|
|         330|  2.0566e-02|  -10.090938|   -9.935852|   -0.000609|    0.002840|  5.0000e+02|   -5.591184|
|         331|  2.0566e-02|  -10.095778|   -9.949224|   -0.000609|    0.002840|  5.0000e+02|   -5.596024|
|         332|  2.0565e-02|  -10.100548|   -9.962590|   -0.000609|    0.002840|  5.0000e+02|   -5.600794|
|         333|  2.0564e-02|  -10.105252|   -9.975956|   -0.000609|    0.002840|  5.0000e+02|   -5.605497|
|         334|  2.0567e-02|  -10.109890|   -9.989323|   -0.000609|    0.002840|  5.0000e+02|   -5.610136|
|         335|  2.0575e-02|  -10.114467|  -10.002696|   -0.000609|    0.002840|  5.0000e+02|   -5.614713|
|         336|  2.0575e-02|  -10.118984|  -10.016073|   -0.000609|    0.002840|  5.0000e+02|   -5.619230|
|         337|  2.0573e-02|  -10.123443|  -10.029456|   -0.000609|    0.002840|  5.0000e+02|   -5.623689|
|         338|  2.0575e-02|  -10.127846|  -10.042840|   -0.000609|    0.002840|  5.0000e+02|   -5.628092|
|         339|  2.0574e-02|  -10.132194|  -10.056222|   -0.000609|    0.002840|  5.0000e+02|   -5.632440|
|         340|  2.0573e-02|  -10.136489|  -10.069596|   -0.000609|    0.002840|  5.0000e+02|   -5.636735|
|         341|  2.0574e-02|  -10.140732|  -10.082958|   -0.000609|    0.002840|  5.0000e+02|   -5.640978|
|         342|  2.0574e-02|  -10.144925|  -10.096300|   -0.000609|    0.002840|  5.0000e+02|   -5.645170|
|         343|  2.0577e-02|  -10.149068|  -10.109617|   -0.000609|    0.002840|  5.0000e+02|   -5.649314|
|         344|  2.0577e-02|  -10.153164|  -10.122903|   -0.000609|    0.002840|  5.0000e+02|   -5.653410|
|         345|  2.0578e-02|  -10.157215|  -10.136153|   -0.000609|    0.002840|  5.0000e+02|   -5.657460|
|         346|  2.0577e-02|  -10.161221|  -10.149364|   -0.000609|    0.002840|  5.0000e+02|   -5.661466|
|         347|  2.0578e-02|  -10.165185|  -10.162534|   -0.000609|    0.002840|  5.0000e+02|   -5.665430|
|         348|  2.0577e-02|  -10.169109|  -10.175662|   -0.000609|    0.002840|  5.0000e+02|   -5.669354|
|         349|  2.0577e-02|  -10.172994|  -10.188748|   -0.000609|    0.002840|  5.0000e+02|   -5.673239|
|         350|  2.0579e-02|  -10.176843|  -10.201796|   -0.000609|    0.002840|  5.0000e+02|   -5.677088|
|         351|  2.0580e-02|  -10.180657|  -10.214807|   -0.000609|    0.002840|  5.0000e+02|   -5.680903|
|         352|  2.0581e-02|  -10.184439|  -10.227785|   -0.000609|    0.002840|  5.0000e+02|   -5.684684|
|         353|  2.0583e-02|  -10.188189|  -10.240734|   -0.000609|    0.002840|  5.0000e+02|   -5.688435|
|         354|  2.0583e-02|  -10.191911|  -10.253658|   -0.000609|    0.002840|  5.0000e+02|   -5.692156|
|         355|  2.0583e-02|  -10.195604|  -10.266558|   -0.000610|    0.002840|  5.0000e+02|   -5.695849|
|         356|  2.0582e-02|  -10.199271|  -10.279439|   -0.000610|    0.002840|  5.0000e+02|   -5.699516|
|         357|  2.0583e-02|  -10.202913|  -10.292299|   -0.000610|    0.002840|  5.0000e+02|   -5.703158|
|         358|  2.0584e-02|  -10.206530|  -10.305140|   -0.000610|    0.002840|  5.0000e+02|   -5.706776|
|         359|  2.0586e-02|  -10.210125|  -10.317960|   -0.000610|    0.002840|  5.0000e+02|   -5.710370|
|         360|  2.0587e-02|  -10.213697|  -10.330756|   -0.000610|    0.002840|  5.0000e+02|   -5.713943|
|         361|  2.0588e-02|  -10.217249|  -10.343524|   -0.000610|    0.002840|  5.0000e+02|   -5.717494|
|         362|  2.0589e-02|  -10.220780|  -10.356260|   -0.000610|    0.002840|  5.0000e+02|   -5.721025|
|         363|  2.0589e-02|  -10.224291|  -10.368959|   -0.000610|    0.002840|  5.0000e+02|   -5.724536|
|         364|  2.0589e-02|  -10.227783|  -10.381615|   -0.000610|    0.002840|  5.0000e+02|   -5.728029|
|         365|  2.0587e-02|  -10.231257|  -10.394223|   -0.000610|    0.002840|  5.0000e+02|   -5.731503|
|         366|  2.0588e-02|  -10.234714|  -10.406778|   -0.000610|    0.002840|  5.0000e+02|   -5.734960|
|         367|  2.0591e-02|  -10.238154|  -10.419276|   -0.000610|    0.002840|  5.0000e+02|   -5.738400|
|         368|  2.0593e-02|  -10.241579|  -10.431714|   -0.000610|    0.002840|  5.0000e+02|   -5.741824|
|         369|  2.0594e-02|  -10.244988|  -10.444089|   -0.000610|    0.002840|  5.0000e+02|   -5.745234|
|         370|  2.0594e-02|  -10.248383|  -10.456401|   -0.000610|    0.002840|  5.0000e+02|   -5.748629|
|         371|  2.0594e-02|  -10.251765|  -10.468649|   -0.000610|    0.002840|  5.0000e+02|   -5.752010|
|         372|  2.0594e-02|  -10.255134|  -10.480834|   -0.000610|    0.002840|  5.0000e+02|   -5.755379|
|         373|  2.0593e-02|  -10.258491|  -10.492958|   -0.000610|    0.002840|  5.0000e+02|   -5.758736|
|         374|  2.0592e-02|  -10.261837|  -10.505022|   -0.000610|    0.002840|  5.0000e+02|   -5.762082|
|         375|  2.0592e-02|  -10.265172|  -10.517028|   -0.000610|    0.002840|  5.0000e+02|   -5.765417|
|         376|  2.0590e-02|  -10.268497|  -10.528978|   -0.000610|    0.002840|  5.0000e+02|   -5.768743|
|         377|  2.0590e-02|  -10.271813|  -10.540874|   -0.000610|    0.002840|  5.0000e+02|   -5.772058|
|         378|  2.0590e-02|  -10.275120|  -10.552715|   -0.000610|    0.002840|  5.0000e+02|   -5.775366|
|         379|  2.0590e-02|  -10.278419|  -10.564503|   -0.000610|    0.002840|  5.0000e+02|   -5.778664|
|         380|  2.0589e-02|  -10.281710|  -10.576236|   -0.000610|    0.002840|  5.0000e+02|   -5.781955|
|         381|  2.0589e-02|  -10.284993|  -10.587912|   -0.000610|    0.002840|  5.0000e+02|   -5.785239|
|         382|  2.0587e-02|  -10.288269|  -10.599529|   -0.000610|    0.002840|  5.0000e+02|   -5.788515|
|         383|  2.0587e-02|  -10.291539|  -10.611082|   -0.000610|    0.002840|  5.0000e+02|   -5.791784|
|         384|  2.0586e-02|  -10.294802|  -10.622569|   -0.000610|    0.002840|  5.0000e+02|   -5.795048|
|         385|  2.0585e-02|  -10.298059|  -10.633984|   -0.000610|    0.002840|  5.0000e+02|   -5.798305|
|         386|  2.0585e-02|  -10.301310|  -10.645323|   -0.000610|    0.002840|  5.0000e+02|   -5.801556|
|         387|  2.0585e-02|  -10.304556|  -10.656583|   -0.000610|    0.002840|  5.0000e+02|   -5.804802|
|         388|  2.0584e-02|  -10.307797|  -10.667759|   -0.000610|    0.002840|  5.0000e+02|   -5.808042|
|         389|  2.0584e-02|  -10.311032|  -10.678848|   -0.000610|    0.002840|  5.0000e+02|   -5.811278|
|         390|  2.0584e-02|  -10.314263|  -10.689846|   -0.000610|    0.002840|  5.0000e+02|   -5.814509|
|         391|  2.0584e-02|  -10.317490|  -10.700753|   -0.000610|    0.002840|  5.0000e+02|   -5.817735|
|         392|  2.0583e-02|  -10.320712|  -10.711568|   -0.000610|    0.002840|  5.0000e+02|   -5.820958|
|         393|  2.0582e-02|  -10.323931|  -10.722289|   -0.000610|    0.002840|  5.0000e+02|   -5.824177|
|         394|  2.0581e-02|  -10.327147|  -10.732917|   -0.000610|    0.002840|  5.0000e+02|   -5.827392|
|         395|  2.0581e-02|  -10.330359|  -10.743453|   -0.000610|    0.002840|  5.0000e+02|   -5.830604|
|         396|  2.0581e-02|  -10.333568|  -10.753897|   -0.000610|    0.002840|  5.0000e+02|   -5.833813|
|         397|  2.0584e-02|  -10.336774|  -10.764250|   -0.000610|    0.002840|  5.0000e+02|   -5.837019|
|         398|  2.0585e-02|  -10.339978|  -10.774514|   -0.000610|    0.002840|  5.0000e+02|   -5.840223|
|         399|  2.0585e-02|  -10.343179|  -10.784690|   -0.000610|    0.002840|  5.0000e+02|   -5.843424|
|         400|  2.0585e-02|  -10.346378|  -10.794776|   -0.000610|    0.002840|  5.0000e+02|   -5.846624|
|         401|  2.0584e-02|  -10.349575|  -10.804773|   -0.000610|    0.002840|  5.0000e+02|   -5.849821|
|         402|  2.0584e-02|  -10.352771|  -10.814681|   -0.000610|    0.002840|  5.0000e+02|   -5.853016|
|         403|  2.0583e-02|  -10.355965|  -10.824497|   -0.000610|    0.002840|  5.0000e+02|   -5.856210|
|         404|  2.0583e-02|  -10.359157|  -10.834221|   -0.000610|    0.002840|  5.0000e+02|   -5.859402|
|         405|  2.0582e-02|  -10.362348|  -10.843850|   -0.000610|    0.002840|  5.0000e+02|   -5.862593|
|         406|  2.0582e-02|  -10.365537|  -10.853382|   -0.000610|    0.002840|  5.0000e+02|   -5.865783|
|         407|  2.0581e-02|  -10.368726|  -10.862814|   -0.000610|    0.002840|  5.0000e+02|   -5.868971|
|         408|  2.0580e-02|  -10.371913|  -10.872144|   -0.000610|    0.002840|  5.0000e+02|   -5.872158|
|         409|  2.0578e-02|  -10.375099|  -10.881371|   -0.000610|    0.002840|  5.0000e+02|   -5.875345|
|         410|  2.0576e-02|  -10.378285|  -10.890492|   -0.000610|    0.002840|  5.0000e+02|   -5.878530|
|         411|  2.0577e-02|  -10.381470|  -10.899506|   -0.000610|    0.002840|  5.0000e+02|   -5.881715|
|         412|  2.0576e-02|  -10.384654|  -10.908412|   -0.000610|    0.002840|  5.0000e+02|   -5.884899|
|         413|  2.0575e-02|  -10.387837|  -10.917210|   -0.000610|    0.002840|  5.0000e+02|   -5.888083|
|         414|  2.0574e-02|  -10.391021|  -10.925901|   -0.000610|    0.002840|  5.0000e+02|   -5.891266|
|         415|  2.0573e-02|  -10.394203|  -10.934484|   -0.000610|    0.002840|  5.0000e+02|   -5.894449|
|         416|  2.0572e-02|  -10.397386|  -10.942962|   -0.000610|    0.002840|  5.0000e+02|   -5.897631|
|         417|  2.0571e-02|  -10.400568|  -10.951334|   -0.000610|    0.002840|  5.0000e+02|   -5.900814|
|         418|  2.0570e-02|  -10.403751|  -10.959604|   -0.000610|    0.002840|  5.0000e+02|   -5.903996|
|         419|  2.0568e-02|  -10.406933|  -10.967771|   -0.000610|    0.002840|  5.0000e+02|   -5.907179|
|         420|  2.0568e-02|  -10.410115|  -10.975839|   -0.000610|    0.002840|  5.0000e+02|   -5.910361|
|         421|  2.0568e-02|  -10.413298|  -10.983808|   -0.000610|    0.002840|  5.0000e+02|   -5.913543|
|         422|  2.0567e-02|  -10.416481|  -10.991678|   -0.000610|    0.002840|  5.0000e+02|   -5.916726|
|         423|  2.0566e-02|  -10.419664|  -10.999453|   -0.000610|    0.002840|  5.0000e+02|   -5.919909|
|         424|  2.0565e-02|  -10.422847|  -11.007132|   -0.000610|    0.002840|  5.0000e+02|   -5.923093|
|         425|  2.0564e-02|  -10.426031|  -11.014714|   -0.000610|    0.002840|  5.0000e+02|   -5.926276|
|         426|  2.0567e-02|  -10.429215|  -11.022202|   -0.000610|    0.002840|  5.0000e+02|   -5.929461|
|         427|  2.0568e-02|  -10.432400|  -11.029594|   -0.000610|    0.002840|  5.0000e+02|   -5.932645|
|         428|  2.0570e-02|  -10.435585|  -11.036891|   -0.000610|    0.002840|  5.0000e+02|   -5.935831|
|         429|  2.0572e-02|  -10.438771|  -11.044093|   -0.000610|    0.002840|  5.0000e+02|   -5.939016|
|         430|  2.0572e-02|  -10.441957|  -11.051199|   -0.000610|    0.002840|  5.0000e+02|   -5.942203|
|         431|  2.0572e-02|  -10.445144|  -11.058212|   -0.000610|    0.002840|  5.0000e+02|   -5.945390|
|         432|  2.0572e-02|  -10.448332|  -11.065130|   -0.000610|    0.002840|  5.0000e+02|   -5.948577|
|         433|  2.0572e-02|  -10.451520|  -11.071954|   -0.000610|    0.002840|  5.0000e+02|   -5.951766|
|         434|  2.0571e-02|  -10.454709|  -11.078686|   -0.000610|    0.002840|  5.0000e+02|   -5.954955|
|         435|  2.0571e-02|  -10.457899|  -11.085327|   -0.000610|    0.002840|  5.0000e+02|   -5.958145|
|         436|  2.0572e-02|  -10.461090|  -11.091878|   -0.000610|    0.002840|  5.0000e+02|   -5.961335|
|         437|  2.0574e-02|  -10.464282|  -11.098340|   -0.000610|    0.002840|  5.0000e+02|   -5.964527|
|         438|  2.0575e-02|  -10.467474|  -11.104717|   -0.000610|    0.002840|  5.0000e+02|   -5.967719|
|         439|  2.0576e-02|  -10.470667|  -11.111009|   -0.000610|    0.002840|  5.0000e+02|   -5.970913|
|         440|  2.0577e-02|  -10.473862|  -11.117219|   -0.000610|    0.002840|  5.0000e+02|   -5.974107|
|         441|  2.0576e-02|  -10.477057|  -11.123350|   -0.000610|    0.002840|  5.0000e+02|   -5.977302|
|         442|  2.0575e-02|  -10.480253|  -11.129401|   -0.000610|    0.002840|  5.0000e+02|   -5.980498|
|         443|  2.0575e-02|  -10.483450|  -11.135376|   -0.000610|    0.002840|  5.0000e+02|   -5.983696|
|         444|  2.0574e-02|  -10.486648|  -11.141277|   -0.000610|    0.002840|  5.0000e+02|   -5.986894|
|         445|  2.0574e-02|  -10.489848|  -11.147105|   -0.000610|    0.002840|  5.0000e+02|   -5.990093|
|         446|  2.0574e-02|  -10.493048|  -11.152861|   -0.000610|    0.002840|  5.0000e+02|   -5.993293|
|         447|  2.0572e-02|  -10.496249|  -11.158547|   -0.000610|    0.002840|  5.0000e+02|   -5.996495|
|         448|  2.0572e-02|  -10.499452|  -11.164164|   -0.000610|    0.002840|  5.0000e+02|   -5.999697|
|         449|  2.0572e-02|  -10.502656|  -11.169714|   -0.000610|    0.002840|  5.0000e+02|   -6.002901|
|         450|  2.0571e-02|  -10.505861|  -11.175197|   -0.000610|    0.002840|  5.0000e+02|   -6.006106|
|         451|  2.0570e-02|  -10.509066|  -11.180614|   -0.000610|    0.002840|  5.0000e+02|   -6.009312|
|         452|  2.0569e-02|  -10.512274|  -11.185967|   -0.000610|    0.002840|  5.0000e+02|   -6.012519|
|         453|  2.0568e-02|  -10.515482|  -11.191256|   -0.000610|    0.002840|  5.0000e+02|   -6.015727|
|         454|  2.0568e-02|  -10.518691|  -11.196484|   -0.000610|    0.002840|  5.0000e+02|   -6.018937|
|         455|  2.0569e-02|  -10.521902|  -11.201651|   -0.000610|    0.002840|  5.0000e+02|   -6.022148|
|         456|  2.0569e-02|  -10.525114|  -11.206758|   -0.000610|    0.002840|  5.0000e+02|   -6.025359|
|         457|  2.0567e-02|  -10.528327|  -11.211807|   -0.000610|    0.002840|  5.0000e+02|   -6.028573|
|         458|  2.0567e-02|  -10.531541|  -11.216800|   -0.000610|    0.002840|  5.0000e+02|   -6.031787|
|         459|  2.0567e-02|  -10.534757|  -11.221738|   -0.000610|    0.002840|  5.0000e+02|   -6.035002|
|         460|  2.0567e-02|  -10.537974|  -11.226624|   -0.000610|    0.002840|  5.0000e+02|   -6.038219|
|         461|  2.0566e-02|  -10.541192|  -11.231457|   -0.000610|    0.002840|  5.0000e+02|   -6.041437|
|         462|  2.0565e-02|  -10.544411|  -11.236240|   -0.000610|    0.002840|  5.0000e+02|   -6.044657|
|         463|  2.0565e-02|  -10.547632|  -11.240976|   -0.000610|    0.002840|  5.0000e+02|   -6.047877|
|         464|  2.0563e-02|  -10.550854|  -11.245664|   -0.000610|    0.002840|  5.0000e+02|   -6.051099|
|         465|  2.0565e-02|  -10.554077|  -11.250307|   -0.000610|    0.002840|  5.0000e+02|   -6.054323|
|         466|  2.0564e-02|  -10.557302|  -11.254906|   -0.000610|    0.002840|  5.0000e+02|   -6.057547|
|         467|  2.0564e-02|  -10.560527|  -11.259463|   -0.000610|    0.002840|  5.0000e+02|   -6.060773|
|         468|  2.0563e-02|  -10.563755|  -11.263978|   -0.000610|    0.002840|  5.0000e+02|   -6.064000|
|         469|  2.0562e-02|  -10.566983|  -11.268452|   -0.000610|    0.002840|  5.0000e+02|   -6.067229|
|         470|  2.0561e-02|  -10.570213|  -11.272888|   -0.000610|    0.002840|  5.0000e+02|   -6.070458|
|         471|  2.0561e-02|  -10.573444|  -11.277285|   -0.000610|    0.002840|  5.0000e+02|   -6.073689|
|         472|  2.0560e-02|  -10.576676|  -11.281644|   -0.000610|    0.002840|  5.0000e+02|   -6.076922|
|         473|  2.0560e-02|  -10.579910|  -11.285968|   -0.000610|    0.002840|  5.0000e+02|   -6.080156|
|         474|  2.0560e-02|  -10.583145|  -11.290256|   -0.000610|    0.002840|  5.0000e+02|   -6.083391|
|         475|  2.0560e-02|  -10.586382|  -11.294509|   -0.000610|    0.002840|  5.0000e+02|   -6.086627|
|         476|  2.0563e-02|  -10.589620|  -11.298729|   -0.000610|    0.002840|  5.0000e+02|   -6.089865|
|         477|  2.0566e-02|  -10.592859|  -11.302916|   -0.000610|    0.002840|  5.0000e+02|   -6.093104|
|         478|  2.0569e-02|  -10.596099|  -11.307071|   -0.000610|    0.002840|  5.0000e+02|   -6.096345|
|         479|  2.0569e-02|  -10.599341|  -11.311195|   -0.000610|    0.002840|  5.0000e+02|   -6.099587|
|         480|  2.0570e-02|  -10.602585|  -11.315290|   -0.000610|    0.002840|  5.0000e+02|   -6.102830|
|         481|  2.0570e-02|  -10.605829|  -11.319356|   -0.000610|    0.002840|  5.0000e+02|   -6.106075|
|         482|  2.0570e-02|  -10.609075|  -11.323394|   -0.000610|    0.002840|  5.0000e+02|   -6.109321|
|         483|  2.0569e-02|  -10.612322|  -11.327405|   -0.000610|    0.002840|  5.0000e+02|   -6.112568|
|         484|  2.0569e-02|  -10.615571|  -11.331391|   -0.000610|    0.002840|  5.0000e+02|   -6.115817|
|         485|  2.0569e-02|  -10.618821|  -11.335351|   -0.000610|    0.002840|  5.0000e+02|   -6.119067|
|         486|  2.0569e-02|  -10.622073|  -11.339287|   -0.000610|    0.002839|  5.0000e+02|   -6.122318|
|         487|  2.0568e-02|  -10.625325|  -11.343201|   -0.000610|    0.002839|  5.0000e+02|   -6.125571|
|         488|  2.0568e-02|  -10.628580|  -11.347091|   -0.000610|    0.002839|  5.0000e+02|   -6.128825|
|         489|  2.0568e-02|  -10.631835|  -11.350960|   -0.000610|    0.002839|  5.0000e+02|   -6.132081|
|         490|  2.0567e-02|  -10.635092|  -11.354808|   -0.000610|    0.002839|  5.0000e+02|   -6.135338|
|         491|  2.0567e-02|  -10.638350|  -11.358636|   -0.000610|    0.002839|  5.0000e+02|   -6.138596|
|         492|  2.0566e-02|  -10.641610|  -11.362444|   -0.000610|    0.002839|  5.0000e+02|   -6.141856|
|         493|  2.0566e-02|  -10.644871|  -11.366233|   -0.000610|    0.002839|  5.0000e+02|   -6.145117|
|         494|  2.0567e-02|  -10.648134|  -11.370003|   -0.000610|    0.002839|  5.0000e+02|   -6.148379|
|         495|  2.0567e-02|  -10.651397|  -11.373756|   -0.000610|    0.002839|  5.0000e+02|   -6.151643|
|         496|  2.0566e-02|  -10.654663|  -11.377491|   -0.000610|    0.002839|  5.0000e+02|   -6.154908|
|         497|  2.0565e-02|  -10.657929|  -11.381210|   -0.000610|    0.002839|  5.0000e+02|   -6.158175|
|         498|  2.0565e-02|  -10.661197|  -11.384912|   -0.000610|    0.002839|  5.0000e+02|   -6.161443|
|         499|  2.0564e-02|  -10.664467|  -11.388598|   -0.000610|    0.002839|  5.0000e+02|   -6.164712|
|         500|  2.0564e-02|  -10.667737|  -11.392269|   -0.000610|    0.002839|  5.0000e+02|   -6.167983|
+-----------------------------------------------------------------------+
|        File Writing Summary       |              Filename             |
+-----------------------------------------------------------------------+
|SU2 restart                        |restart.dat                        |
|                                   |                     (927.853 MB/s)|
|Paraview                           |vol_solution.vtu                   |
|                                   |                     (366.676 MB/s)|
|Paraview surface                   |surface.vtu                        |
|                                   |                     (12.1994 MB/s)|
+-----------------------------------------------------------------------+

Writing the forces breakdown file (forces_breakdown.dat).
+-------------------------------------------------------------------------------------------------------+
|  Inner_Iter|   Time(sec)|    rms[Rho]|   rms[RhoE]|          CL|          CD|     Avg CFL| relrms[Rho]|
+-------------------------------------------------------------------------------------------------------+
|         501|  2.0579e-02|  -10.671009|  -11.395926|   -0.000610|    0.002839|  5.0000e+02|   -6.171255|
|         502|  2.0579e-02|  -10.674283|  -11.399567|   -0.000610|    0.002839|  5.0000e+02|   -6.174528|
|         503|  2.0579e-02|  -10.677558|  -11.403196|   -0.000610|    0.002839|  5.0000e+02|   -6.177803|
|         504|  2.0579e-02|  -10.680834|  -11.406811|   -0.000610|    0.002839|  5.0000e+02|   -6.181079|
|         505|  2.0579e-02|  -10.684111|  -11.410413|   -0.000610|    0.002839|  5.0000e+02|   -6.184357|
|         506|  2.0580e-02|  -10.687390|  -11.414004|   -0.000610|    0.002839|  5.0000e+02|   -6.187636|
|         507|  2.0579e-02|  -10.690671|  -11.417583|   -0.000610|    0.002839|  5.0000e+02|   -6.190916|
|         508|  2.0580e-02|  -10.693952|  -11.421150|   -0.000610|    0.002839|  5.0000e+02|   -6.194198|
|         509|  2.0580e-02|  -10.697235|  -11.424707|   -0.000610|    0.002839|  5.0000e+02|   -6.197481|
|         510|  2.0580e-02|  -10.700520|  -11.428253|   -0.000610|    0.002839|  5.0000e+02|   -6.200765|
|         511|  2.0580e-02|  -10.703805|  -11.431790|   -0.000610|    0.002839|  5.0000e+02|   -6.204051|
|         512|  2.0579e-02|  -10.707093|  -11.435316|   -0.000610|    0.002839|  5.0000e+02|   -6.207338|
|         513|  2.0580e-02|  -10.710381|  -11.438834|   -0.000610|    0.002839|  5.0000e+02|   -6.210626|
|         514|  2.0579e-02|  -10.713671|  -11.442343|   -0.000610|    0.002839|  5.0000e+02|   -6.213916|
|         515|  2.0579e-02|  -10.716962|  -11.445843|   -0.000610|    0.002839|  5.0000e+02|   -6.217208|
|         516|  2.0581e-02|  -10.720255|  -11.449335|   -0.000610|    0.002839|  5.0000e+02|   -6.220500|
|         517|  2.0581e-02|  -10.723549|  -11.452819|   -0.000610|    0.002839|  5.0000e+02|   -6.223794|
|         518|  2.0583e-02|  -10.726844|  -11.456295|   -0.000610|    0.002839|  5.0000e+02|   -6.227089|
|         519|  2.0583e-02|  -10.730141|  -11.459764|   -0.000610|    0.002839|  5.0000e+02|   -6.230386|
|         520|  2.0584e-02|  -10.733439|  -11.463226|   -0.000610|    0.002839|  5.0000e+02|   -6.233684|
|         521|  2.0583e-02|  -10.736738|  -11.466681|   -0.000610|    0.002839|  5.0000e+02|   -6.236983|
|         522|  2.0583e-02|  -10.740039|  -11.470130|   -0.000610|    0.002839|  5.0000e+02|   -6.240284|
|         523|  2.0583e-02|  -10.743341|  -11.473572|   -0.000610|    0.002839|  5.0000e+02|   -6.243586|
|         524|  2.0583e-02|  -10.746644|  -11.477008|   -0.000610|    0.002839|  5.0000e+02|   -6.246889|
|         525|  2.0584e-02|  -10.749949|  -11.480439|   -0.000610|    0.002839|  5.0000e+02|   -6.250194|
|         526|  2.0586e-02|  -10.753255|  -11.483864|   -0.000610|    0.002839|  5.0000e+02|   -6.253500|
|         527|  2.0588e-02|  -10.756562|  -11.487284|   -0.000610|    0.002839|  5.0000e+02|   -6.256808|
|         528|  2.0589e-02|  -10.759871|  -11.490698|   -0.000610|    0.002839|  5.0000e+02|   -6.260116|
|         529|  2.0589e-02|  -10.763181|  -11.494109|   -0.000610|    0.002839|  5.0000e+02|   -6.263426|
|         530|  2.0589e-02|  -10.766492|  -11.497514|   -0.000610|    0.002839|  5.0000e+02|   -6.266738|
|         531|  2.0589e-02|  -10.769805|  -11.500916|   -0.000610|    0.002839|  5.0000e+02|   -6.270050|
|         532|  2.0589e-02|  -10.773119|  -11.504313|   -0.000610|    0.002839|  5.0000e+02|   -6.273364|
|         533|  2.0588e-02|  -10.776434|  -11.507707|   -0.000610|    0.002839|  5.0000e+02|   -6.276680|
|         534|  2.0588e-02|  -10.779751|  -11.511097|   -0.000610|    0.002839|  5.0000e+02|   -6.279997|
|         535|  2.0588e-02|  -10.783069|  -11.514484|   -0.000610|    0.002839|  5.0000e+02|   -6.283315|
|         536|  2.0588e-02|  -10.786388|  -11.517867|   -0.000610|    0.002839|  5.0000e+02|   -6.286634|
|         537|  2.0588e-02|  -10.789709|  -11.521248|   -0.000610|    0.002839|  5.0000e+02|   -6.289955|
|         538|  2.0587e-02|  -10.793031|  -11.524625|   -0.000610|    0.002839|  5.0000e+02|   -6.293276|
|         539|  2.0587e-02|  -10.796354|  -11.528000|   -0.000610|    0.002839|  5.0000e+02|   -6.296600|
|         540|  2.0586e-02|  -10.799679|  -11.531372|   -0.000610|    0.002839|  5.0000e+02|   -6.299924|
|         541|  2.0586e-02|  -10.803005|  -11.534742|   -0.000610|    0.002839|  5.0000e+02|   -6.303250|
|         542|  2.0586e-02|  -10.806332|  -11.538109|   -0.000610|    0.002839|  5.0000e+02|   -6.306577|
|         543|  2.0586e-02|  -10.809660|  -11.541475|   -0.000610|    0.002839|  5.0000e+02|   -6.309906|
|         544|  2.0586e-02|  -10.812990|  -11.544837|   -0.000610|    0.002839|  5.0000e+02|   -6.313236|
|         545|  2.0585e-02|  -10.816321|  -11.548199|   -0.000610|    0.002839|  5.0000e+02|   -6.316567|
|         546|  2.0584e-02|  -10.819654|  -11.551558|   -0.000610|    0.002839|  5.0000e+02|   -6.319899|
|         547|  2.0583e-02|  -10.822987|  -11.554917|   -0.000610|    0.002839|  5.0000e+02|   -6.323233|
|         548|  2.0584e-02|  -10.826322|  -11.558273|   -0.000610|    0.002839|  5.0000e+02|   -6.326568|
|         549|  2.0584e-02|  -10.829658|  -11.561629|   -0.000610|    0.002839|  5.0000e+02|   -6.329904|
|         550|  2.0584e-02|  -10.832996|  -11.564982|   -0.000610|    0.002839|  5.0000e+02|   -6.333241|
|         551|  2.0584e-02|  -10.836335|  -11.568336|   -0.000610|    0.002839|  5.0000e+02|   -6.336580|
|         552|  2.0584e-02|  -10.839675|  -11.571688|   -0.000610|    0.002839|  5.0000e+02|   -6.339920|
|         553|  2.0584e-02|  -10.843016|  -11.575039|   -0.000610|    0.002839|  5.0000e+02|   -6.343262|
|         554|  2.0583e-02|  -10.846359|  -11.578390|   -0.000610|    0.002839|  5.0000e+02|   -6.346604|
|         555|  2.0583e-02|  -10.849703|  -11.581740|   -0.000610|    0.002839|  5.0000e+02|   -6.349948|
|         556|  2.0583e-02|  -10.853048|  -11.585089|   -0.000610|    0.002839|  5.0000e+02|   -6.353293|
|         557|  2.0583e-02|  -10.856394|  -11.588439|   -0.000610|    0.002839|  5.0000e+02|   -6.356640|
|         558|  2.0583e-02|  -10.859742|  -11.591788|   -0.000610|    0.002839|  5.0000e+02|   -6.359987|
|         559|  2.0583e-02|  -10.863091|  -11.595137|   -0.000610|    0.002839|  5.0000e+02|   -6.363336|
|         560|  2.0582e-02|  -10.866441|  -11.598486|   -0.000610|    0.002839|  5.0000e+02|   -6.366687|
|         561|  2.0581e-02|  -10.869793|  -11.601834|   -0.000610|    0.002839|  5.0000e+02|   -6.370038|
|         562|  2.0581e-02|  -10.873145|  -11.605183|   -0.000610|    0.002839|  5.0000e+02|   -6.373391|
|         563|  2.0581e-02|  -10.876499|  -11.608532|   -0.000610|    0.002839|  5.0000e+02|   -6.376745|
|         564|  2.0582e-02|  -10.879854|  -11.611881|   -0.000610|    0.002839|  5.0000e+02|   -6.380100|
|         565|  2.0582e-02|  -10.883211|  -11.615231|   -0.000610|    0.002839|  5.0000e+02|   -6.383456|
|         566|  2.0583e-02|  -10.886568|  -11.618581|   -0.000610|    0.002839|  5.0000e+02|   -6.386814|
|         567|  2.0583e-02|  -10.889927|  -11.621931|   -0.000610|    0.002839|  5.0000e+02|   -6.390173|
|         568|  2.0584e-02|  -10.893288|  -11.625283|   -0.000610|    0.002839|  5.0000e+02|   -6.393533|
|         569|  2.0584e-02|  -10.896649|  -11.628634|   -0.000610|    0.002839|  5.0000e+02|   -6.396894|
|         570|  2.0583e-02|  -10.900011|  -11.631987|   -0.000610|    0.002839|  5.0000e+02|   -6.400257|
|         571|  2.0584e-02|  -10.903375|  -11.635339|   -0.000610|    0.002839|  5.0000e+02|   -6.403621|
|         572|  2.0584e-02|  -10.906740|  -11.638694|   -0.000610|    0.002839|  5.0000e+02|   -6.406986|
|         573|  2.0584e-02|  -10.910107|  -11.642048|   -0.000610|    0.002839|  5.0000e+02|   -6.410352|
|         574|  2.0585e-02|  -10.913474|  -11.645405|   -0.000610|    0.002839|  5.0000e+02|   -6.413720|
|         575|  2.0585e-02|  -10.916843|  -11.648761|   -0.000610|    0.002839|  5.0000e+02|   -6.417088|
|         576|  2.0586e-02|  -10.920213|  -11.652119|   -0.000610|    0.002839|  5.0000e+02|   -6.420458|
|         577|  2.0587e-02|  -10.923584|  -11.655479|   -0.000610|    0.002839|  5.0000e+02|   -6.423829|
|         578|  2.0588e-02|  -10.926956|  -11.658839|   -0.000610|    0.002839|  5.0000e+02|   -6.427202|
|         579|  2.0589e-02|  -10.930330|  -11.662201|   -0.000610|    0.002839|  5.0000e+02|   -6.430575|
|         580|  2.0589e-02|  -10.933704|  -11.665565|   -0.000610|    0.002839|  5.0000e+02|   -6.433950|
|         581|  2.0590e-02|  -10.937080|  -11.668929|   -0.000610|    0.002839|  5.0000e+02|   -6.437326|
|         582|  2.0589e-02|  -10.940457|  -11.672295|   -0.000610|    0.002839|  5.0000e+02|   -6.440703|
|         583|  2.0590e-02|  -10.943836|  -11.675662|   -0.000610|    0.002839|  5.0000e+02|   -6.444081|
|         584|  2.0591e-02|  -10.947215|  -11.679032|   -0.000610|    0.002839|  5.0000e+02|   -6.447461|
|         585|  2.0593e-02|  -10.950596|  -11.682402|   -0.000610|    0.002839|  5.0000e+02|   -6.450841|
|         586|  2.0596e-02|  -10.953978|  -11.685775|   -0.000610|    0.002839|  5.0000e+02|   -6.454223|
|         587|  2.0597e-02|  -10.957361|  -11.689149|   -0.000610|    0.002839|  5.0000e+02|   -6.457606|
|         588|  2.0598e-02|  -10.960745|  -11.692524|   -0.000610|    0.002839|  5.0000e+02|   -6.460990|
|         589|  2.0598e-02|  -10.964130|  -11.695902|   -0.000610|    0.002839|  5.0000e+02|   -6.464376|
|         590|  2.0599e-02|  -10.967517|  -11.699282|   -0.000610|    0.002839|  5.0000e+02|   -6.467762|
|         591|  2.0598e-02|  -10.970904|  -11.702663|   -0.000610|    0.002839|  5.0000e+02|   -6.471150|
|         592|  2.0598e-02|  -10.974293|  -11.706046|   -0.000610|    0.002839|  5.0000e+02|   -6.474539|
|         593|  2.0598e-02|  -10.977683|  -11.709431|   -0.000610|    0.002839|  5.0000e+02|   -6.477929|
|         594|  2.0597e-02|  -10.981075|  -11.712818|   -0.000610|    0.002839|  5.0000e+02|   -6.481320|
|         595|  2.0598e-02|  -10.984467|  -11.716207|   -0.000610|    0.002839|  5.0000e+02|   -6.484712|
|         596|  2.0598e-02|  -10.987860|  -11.719598|   -0.000610|    0.002839|  5.0000e+02|   -6.488106|
|         597|  2.0597e-02|  -10.991255|  -11.722992|   -0.000610|    0.002839|  5.0000e+02|   -6.491501|
|         598|  2.0597e-02|  -10.994651|  -11.726387|   -0.000610|    0.002839|  5.0000e+02|   -6.494896|
|         599|  2.0596e-02|  -10.998048|  -11.729784|   -0.000610|    0.002839|  5.0000e+02|   -6.498293|
|         600|  2.0597e-02|  -11.001446|  -11.733185|   -0.000610|    0.002839|  5.0000e+02|   -6.501691|
|         601|  2.0597e-02|  -11.004845|  -11.736586|   -0.000610|    0.002839|  5.0000e+02|   -6.505091|
|         602|  2.0596e-02|  -11.008245|  -11.739991|   -0.000610|    0.002839|  5.0000e+02|   -6.508491|
|         603|  2.0596e-02|  -11.011647|  -11.743397|   -0.000610|    0.002839|  5.0000e+02|   -6.511892|
|         604|  2.0595e-02|  -11.015050|  -11.746806|   -0.000610|    0.002839|  5.0000e+02|   -6.515295|
|         605|  2.0595e-02|  -11.018453|  -11.750218|   -0.000610|    0.002839|  5.0000e+02|   -6.518699|
|         606|  2.0594e-02|  -11.021858|  -11.753631|   -0.000610|    0.002839|  5.0000e+02|   -6.522104|
|         607|  2.0594e-02|  -11.025264|  -11.757048|   -0.000610|    0.002839|  5.0000e+02|   -6.525510|
|         608|  2.0593e-02|  -11.028671|  -11.760465|   -0.000610|    0.002839|  5.0000e+02|   -6.528917|
|         609|  2.0592e-02|  -11.032079|  -11.763887|   -0.000610|    0.002839|  5.0000e+02|   -6.532325|
|         610|  2.0592e-02|  -11.035489|  -11.767310|   -0.000610|    0.002839|  5.0000e+02|   -6.535734|
|         611|  2.0591e-02|  -11.038899|  -11.770736|   -0.000610|    0.002839|  5.0000e+02|   -6.539145|
|         612|  2.0591e-02|  -11.042311|  -11.774165|   -0.000610|    0.002839|  5.0000e+02|   -6.542556|
|         613|  2.0590e-02|  -11.045723|  -11.777597|   -0.000610|    0.002839|  5.0000e+02|   -6.545969|
|         614|  2.0590e-02|  -11.049137|  -11.781030|   -0.000610|    0.002839|  5.0000e+02|   -6.549382|
|         615|  2.0590e-02|  -11.052552|  -11.784467|   -0.000610|    0.002839|  5.0000e+02|   -6.552797|
|         616|  2.0590e-02|  -11.055968|  -11.787906|   -0.000610|    0.002839|  5.0000e+02|   -6.556213|
|         617|  2.0590e-02|  -11.059385|  -11.791347|   -0.000610|    0.002839|  5.0000e+02|   -6.559630|
[...]
CSysSolve::FGMRES(): system solved by initial guess.
|        1039|  2.0647e-02|  -12.567863|  -13.531111|   -0.000610|    0.002839|  5.0000e+02|   -8.068108|
|        1040|  2.0647e-02|  -12.571545|  -13.533137|   -0.000610|    0.002839|  5.0000e+02|   -8.071790|
CSysSolve::FGMRES(): system solved by initial guess.
|        1041|  2.0645e-02|  -12.575236|  -13.540590|   -0.000610|    0.002839|  5.0000e+02|   -8.075481|
|        1042|  2.0645e-02|  -12.578917|  -13.540956|   -0.000610|    0.002839|  5.0000e+02|   -8.079162|
CSysSolve::FGMRES(): system solved by initial guess.
|        1043|  2.0642e-02|  -12.582609|  -13.548452|   -0.000610|    0.002839|  5.0000e+02|   -8.082855|
|        1044|  2.0642e-02|  -12.586291|  -13.549273|   -0.000610|    0.002839|  5.0000e+02|   -8.086536|
CSysSolve::FGMRES(): system solved by initial guess.
|        1045|  2.0640e-02|  -12.589984|  -13.556582|   -0.000610|    0.002839|  5.0000e+02|   -8.090229|
|        1046|  2.0640e-02|  -12.593666|  -13.557141|   -0.000610|    0.002839|  5.0000e+02|   -8.093912|
CSysSolve::FGMRES(): system solved by initial guess.
|        1047|  2.0638e-02|  -12.597360|  -13.564228|   -0.000610|    0.002839|  5.0000e+02|   -8.097606|
|        1048|  2.0637e-02|  -12.601043|  -13.564690|   -0.000610|    0.002839|  5.0000e+02|   -8.101289|
CSysSolve::FGMRES(): system solved by initial guess.
|        1049|  2.0635e-02|  -12.604738|  -13.571714|   -0.000610|    0.002839|  5.0000e+02|   -8.104984|
|        1050|  2.0635e-02|  -12.608422|  -13.571947|   -0.000610|    0.002839|  5.0000e+02|   -8.108668|
CSysSolve::FGMRES(): system solved by initial guess.
|        1051|  2.0633e-02|  -12.612118|  -13.578820|   -0.000610|    0.002839|  5.0000e+02|   -8.112364|
|        1052|  2.0633e-02|  -12.615803|  -13.578918|   -0.000610|    0.002839|  5.0000e+02|   -8.116048|
CSysSolve::FGMRES(): system solved by initial guess.
|        1053|  2.0631e-02|  -12.619499|  -13.585819|   -0.000610|    0.002839|  5.0000e+02|   -8.119745|
|        1054|  2.0630e-02|  -12.623185|  -13.585814|   -0.000610|    0.002839|  5.0000e+02|   -8.123430|
CSysSolve::FGMRES(): system solved by initial guess.
|        1055|  2.0629e-02|  -12.626882|  -13.592646|   -0.000610|    0.002839|  5.0000e+02|   -8.127128|
CSysSolve::FGMRES(): system solved by initial guess.
|        1056|  2.0627e-02|  -12.630569|  -13.592635|   -0.000610|    0.002839|  5.0000e+02|   -8.130814|
|        1057|  2.0627e-02|  -12.634267|  -13.599455|   -0.000610|    0.002839|  5.0000e+02|   -8.134513|
CSysSolve::FGMRES(): system solved by initial guess.
|        1058|  2.0625e-02|  -12.637965|  -13.605001|   -0.000610|    0.002839|  5.0000e+02|   -8.138211|
|        1059|  2.0626e-02|  -12.641651|  -13.604951|   -0.000610|    0.002839|  5.0000e+02|   -8.141897|
CSysSolve::FGMRES(): system solved by initial guess.
|        1060|  2.0624e-02|  -12.645352|  -13.611890|   -0.000610|    0.002839|  5.0000e+02|   -8.145597|
|        1061|  2.0624e-02|  -12.649040|  -13.611549|   -0.000610|    0.002839|  5.0000e+02|   -8.149285|
CSysSolve::FGMRES(): system solved by initial guess.
|        1062|  2.0622e-02|  -12.652740|  -13.617804|   -0.000610|    0.002839|  5.0000e+02|   -8.152986|
CSysSolve::FGMRES(): system solved by initial guess.
|        1063|  2.0620e-02|  -12.656430|  -13.617273|   -0.000610|    0.002839|  5.0000e+02|   -8.156675|
|        1064|  2.0619e-02|  -12.660132|  -13.623921|   -0.000610|    0.002839|  5.0000e+02|   -8.160377|
CSysSolve::FGMRES(): system solved by initial guess.
|        1065|  2.0618e-02|  -12.663833|  -13.629149|   -0.000610|    0.002839|  5.0000e+02|   -8.164078|
|        1066|  2.0618e-02|  -12.667522|  -13.628666|   -0.000610|    0.002839|  5.0000e+02|   -8.167767|
CSysSolve::FGMRES(): system solved by initial guess.
|        1067|  2.0616e-02|  -12.671226|  -13.635575|   -0.000610|    0.002839|  5.0000e+02|   -8.171471|
CSysSolve::FGMRES(): system solved by initial guess.
|        1068|  2.0615e-02|  -12.674916|  -13.634652|   -0.000610|    0.002839|  5.0000e+02|   -8.175161|
|        1069|  2.0614e-02|  -12.678621|  -13.641023|   -0.000610|    0.002839|  5.0000e+02|   -8.178866|
CSysSolve::FGMRES(): system solved by initial guess.
|        1070|  2.0612e-02|  -12.682324|  -13.646189|   -0.000610|    0.002839|  5.0000e+02|   -8.182570|
CSysSolve::FGMRES(): system solved by initial guess.
|        1071|  2.0610e-02|  -12.686015|  -13.645443|   -0.000610|    0.002839|  5.0000e+02|   -8.186261|
|        1072|  2.0610e-02|  -12.689722|  -13.652276|   -0.000610|    0.002839|  5.0000e+02|   -8.189967|
CSysSolve::FGMRES(): system solved by initial guess.
|        1073|  2.0608e-02|  -12.693427|  -13.657381|   -0.000610|    0.002839|  5.0000e+02|   -8.193673|
CSysSolve::FGMRES(): system solved by initial guess.
|        1074|  2.0606e-02|  -12.697118|  -13.656082|   -0.000610|    0.002839|  5.0000e+02|   -8.197364|
|        1075|  2.0606e-02|  -12.700827|  -13.662859|   -0.000610|    0.002839|  5.0000e+02|   -8.201072|
CSysSolve::FGMRES(): system solved by initial guess.
|        1076|  2.0604e-02|  -12.704534|  -13.667862|   -0.000610|    0.002839|  5.0000e+02|   -8.204779|
CSysSolve::FGMRES(): system solved by initial guess.
|        1077|  2.0602e-02|  -12.708226|  -13.666336|   -0.000610|    0.002839|  5.0000e+02|   -8.208471|
|        1078|  2.0602e-02|  -12.711936|  -13.672992|   -0.000610|    0.002839|  5.0000e+02|   -8.212181|
CSysSolve::FGMRES(): system solved by initial guess.
|        1079|  2.0600e-02|  -12.715644|  -13.677876|   -0.000610|    0.002839|  5.0000e+02|   -8.215889|
CSysSolve::FGMRES(): system solved by initial guess.
|        1080|  2.0598e-02|  -12.719337|  -13.676133|   -0.000610|    0.002839|  5.0000e+02|   -8.219583|
|        1081|  2.0597e-02|  -12.723049|  -13.682698|   -0.000610|    0.002839|  5.0000e+02|   -8.223294|
CSysSolve::FGMRES(): system solved by initial guess.
|        1082|  2.0596e-02|  -12.726758|  -13.687633|   -0.000610|    0.002839|  5.0000e+02|   -8.227004|
CSysSolve::FGMRES(): system solved by initial guess.
|        1083|  2.0594e-02|  -12.730453|  -13.685616|   -0.000610|    0.002839|  5.0000e+02|   -8.230698|
|        1084|  2.0594e-02|  -12.734166|  -13.692145|   -0.000610|    0.002839|  5.0000e+02|   -8.234412|
CSysSolve::FGMRES(): system solved by initial guess.
|        1085|  2.0592e-02|  -12.737877|  -13.697128|   -0.000610|    0.002839|  5.0000e+02|   -8.238123|
CSysSolve::FGMRES(): system solved by initial guess.
|        1086|  2.0590e-02|  -12.741573|  -13.694911|   -0.000610|    0.002839|  5.0000e+02|   -8.241819|
CSysSolve::FGMRES(): system solved by initial guess.
|        1087|  2.0588e-02|  -12.745288|  -13.701523|   -0.000610|    0.002839|  5.0000e+02|   -8.245534|
|        1088|  2.0588e-02|  -12.749001|  -13.706412|   -0.000610|    0.002839|  5.0000e+02|   -8.249246|
CSysSolve::FGMRES(): system solved by initial guess.
|        1089|  2.0586e-02|  -12.752715|  -13.711285|   -0.000610|    0.002839|  5.0000e+02|   -8.252960|
CSysSolve::FGMRES(): system solved by initial guess.
|        1090|  2.0584e-02|  -12.756411|  -13.709389|   -0.000610|    0.002839|  5.0000e+02|   -8.256656|
|        1091|  2.0585e-02|  -12.760128|  -13.715972|   -0.000610|    0.002839|  5.0000e+02|   -8.260374|
CSysSolve::FGMRES(): system solved by initial guess.
|        1092|  2.0583e-02|  -12.763843|  -13.720483|   -0.000610|    0.002839|  5.0000e+02|   -8.264088|
CSysSolve::FGMRES(): system solved by initial guess.
|        1093|  2.0581e-02|  -12.767541|  -13.717734|   -0.000610|    0.002839|  5.0000e+02|   -8.267787|
CSysSolve::FGMRES(): system solved by initial guess.
|        1094|  2.0579e-02|  -12.771261|  -13.724431|   -0.000610|    0.002839|  5.0000e+02|   -8.271506|
|        1095|  2.0579e-02|  -12.774977|  -13.729198|   -0.000610|    0.002839|  5.0000e+02|   -8.275222|
CSysSolve::FGMRES(): system solved by initial guess.
|        1096|  2.0577e-02|  -12.778694|  -13.734118|   -0.000610|    0.002839|  5.0000e+02|   -8.278940|
CSysSolve::FGMRES(): system solved by initial guess.
|        1097|  2.0575e-02|  -12.782393|  -13.731479|   -0.000610|    0.002839|  5.0000e+02|   -8.282639|
CSysSolve::FGMRES(): system solved by initial guess.
|        1098|  2.0574e-02|  -12.786115|  -13.738368|   -0.000610|    0.002839|  5.0000e+02|   -8.286361|
|        1099|  2.0574e-02|  -12.789833|  -13.742776|   -0.000610|    0.002839|  5.0000e+02|   -8.290078|
CSysSolve::FGMRES(): system solved by initial guess.
|        1100|  2.0572e-02|  -12.793553|  -13.747681|   -0.000610|    0.002839|  5.0000e+02|   -8.293798|
CSysSolve::FGMRES(): system solved by initial guess.
|        1101|  2.0570e-02|  -12.797253|  -13.744766|   -0.000610|    0.002839|  5.0000e+02|   -8.297499|
CSysSolve::FGMRES(): system solved by initial guess.
|        1102|  2.0568e-02|  -12.800977|  -13.751454|   -0.000610|    0.002839|  5.0000e+02|   -8.301223|
|        1103|  2.0568e-02|  -12.804698|  -13.756080|   -0.000610|    0.002839|  5.0000e+02|   -8.304943|
CSysSolve::FGMRES(): system solved by initial guess.
|        1104|  2.0566e-02|  -12.808419|  -13.760745|   -0.000610|    0.002839|  5.0000e+02|   -8.308665|
CSysSolve::FGMRES(): system solved by initial guess.
|        1105|  2.0564e-02|  -12.812121|  -13.757287|   -0.000610|    0.002839|  5.0000e+02|   -8.312367|
CSysSolve::FGMRES(): system solved by initial guess.
|        1106|  2.0562e-02|  -12.815848|  -13.764067|   -0.000610|    0.002839|  5.0000e+02|   -8.316093|
|        1107|  2.0562e-02|  -12.819570|  -13.768639|   -0.000610|    0.002839|  5.0000e+02|   -8.319816|
CSysSolve::FGMRES(): system solved by initial guess.
|        1108|  2.0560e-02|  -12.823294|  -13.773400|   -0.000610|    0.002839|  5.0000e+02|   -8.323540|
CSysSolve::FGMRES(): system solved by initial guess.
|        1109|  2.0558e-02|  -12.826998|  -13.769435|   -0.000610|    0.002839|  5.0000e+02|   -8.327243|
CSysSolve::FGMRES(): system solved by initial guess.
|        1110|  2.0556e-02|  -12.830727|  -13.776450|   -0.000610|    0.002839|  5.0000e+02|   -8.330973|
CSysSolve::FGMRES(): system solved by initial guess.
|        1111|  2.0554e-02|  -12.834452|  -13.780798|   -0.000610|    0.002839|  5.0000e+02|   -8.334697|
|        1112|  2.0554e-02|  -12.838179|  -13.785763|   -0.000610|    0.002839|  5.0000e+02|   -8.338424|
CSysSolve::FGMRES(): system solved by initial guess.
|        1113|  2.0553e-02|  -12.841907|  -13.791332|   -0.000610|    0.002839|  5.0000e+02|   -8.342152|
CSysSolve::FGMRES(): system solved by initial guess.
|        1114|  2.0552e-02|  -12.845609|  -13.786554|   -0.000610|    0.002839|  5.0000e+02|   -8.345854|
CSysSolve::FGMRES(): system solved by initial guess.
|        1115|  2.0550e-02|  -12.849342|  -13.793201|   -0.000610|    0.002839|  5.0000e+02|   -8.349587|
CSysSolve::FGMRES(): system solved by initial guess.
|        1116|  2.0548e-02|  -12.853069|  -13.797988|   -0.000610|    0.002839|  5.0000e+02|   -8.353315|
|        1117|  2.0548e-02|  -12.856799|  -13.802706|   -0.000610|    0.002839|  5.0000e+02|   -8.357044|
CSysSolve::FGMRES(): system solved by initial guess.
|        1118|  2.0546e-02|  -12.860530|  -13.808313|   -0.000610|    0.002839|  5.0000e+02|   -8.360776|
CSysSolve::FGMRES(): system solved by initial guess.
|        1119|  2.0544e-02|  -12.864233|  -13.802511|   -0.000610|    0.002839|  5.0000e+02|   -8.364478|
CSysSolve::FGMRES(): system solved by initial guess.
|        1120|  2.0543e-02|  -12.867970|  -13.809349|   -0.000610|    0.002839|  5.0000e+02|   -8.368215|
CSysSolve::FGMRES(): system solved by initial guess.
|        1121|  2.0540e-02|  -12.871700|  -13.814009|   -0.000610|    0.002839|  5.0000e+02|   -8.371945|
|        1122|  2.0540e-02|  -12.875433|  -13.818978|   -0.000610|    0.002839|  5.0000e+02|   -8.375678|
CSysSolve::FGMRES(): system solved by initial guess.
|        1123|  2.0538e-02|  -12.879167|  -13.824492|   -0.000610|    0.002839|  5.0000e+02|   -8.379412|
CSysSolve::FGMRES(): system solved by initial guess.
|        1124|  2.0536e-02|  -12.882871|  -13.817750|   -0.000610|    0.002839|  5.0000e+02|   -8.383116|
CSysSolve::FGMRES(): system solved by initial guess.
|        1125|  2.0535e-02|  -12.886611|  -13.824759|   -0.000610|    0.002839|  5.0000e+02|   -8.386857|
CSysSolve::FGMRES(): system solved by initial guess.
|        1126|  2.0533e-02|  -12.890344|  -13.829474|   -0.000610|    0.002839|  5.0000e+02|   -8.390590|
|        1127|  2.0532e-02|  -12.894080|  -13.834505|   -0.000610|    0.002839|  5.0000e+02|   -8.394326|
CSysSolve::FGMRES(): system solved by initial guess.
|        1128|  2.0531e-02|  -12.897817|  -13.840061|   -0.000610|    0.002839|  5.0000e+02|   -8.398063|
CSysSolve::FGMRES(): system solved by initial guess.
|        1129|  2.0529e-02|  -12.901524|  -13.832487|   -0.000610|    0.002839|  5.0000e+02|   -8.401769|
CSysSolve::FGMRES(): system solved by initial guess.
|        1130|  2.0527e-02|  -12.905268|  -13.839559|   -0.000610|    0.002839|  5.0000e+02|   -8.405513|
CSysSolve::FGMRES(): system solved by initial guess.
|        1131|  2.0526e-02|  -12.909004|  -13.844688|   -0.000610|    0.002839|  5.0000e+02|   -8.409250|
CSysSolve::FGMRES(): system solved by initial guess.
|        1132|  2.0524e-02|  -12.912743|  -13.849691|   -0.000610|    0.002839|  5.0000e+02|   -8.412989|
|        1133|  2.0524e-02|  -12.916484|  -13.855306|   -0.000610|    0.002839|  5.0000e+02|   -8.416729|
CSysSolve::FGMRES(): system solved by initial guess.
|        1134|  2.0523e-02|  -12.920224|  -13.860576|   -0.000610|    0.002839|  5.0000e+02|   -8.420470|
CSysSolve::FGMRES(): system solved by initial guess.
|        1135|  2.0521e-02|  -12.923929|  -13.851555|   -0.000610|    0.002839|  5.0000e+02|   -8.424174|
CSysSolve::FGMRES(): system solved by initial guess.
|        1136|  2.0519e-02|  -12.927679|  -13.859338|   -0.000610|    0.002839|  5.0000e+02|   -8.427924|
CSysSolve::FGMRES(): system solved by initial guess.
|        1137|  2.0518e-02|  -12.931419|  -13.864634|   -0.000610|    0.002839|  5.0000e+02|   -8.431665|
CSysSolve::FGMRES(): system solved by initial guess.
|        1138|  2.0517e-02|  -12.935162|  -13.869858|   -0.000610|    0.002839|  5.0000e+02|   -8.435408|
|        1139|  2.0516e-02|  -12.938907|  -13.875456|   -0.000610|    0.002839|  5.0000e+02|   -8.439152|
CSysSolve::FGMRES(): system solved by initial guess.
|        1140|  2.0515e-02|  -12.942650|  -13.880760|   -0.000610|    0.002839|  5.0000e+02|   -8.442896|
CSysSolve::FGMRES(): system solved by initial guess.
|        1141|  2.0513e-02|  -12.946356|  -13.870274|   -0.000610|    0.002839|  5.0000e+02|   -8.446602|
CSysSolve::FGMRES(): system solved by initial guess.
|        1142|  2.0511e-02|  -12.950111|  -13.878198|   -0.000610|    0.002839|  5.0000e+02|   -8.450357|
CSysSolve::FGMRES(): system solved by initial guess.
|        1143|  2.0509e-02|  -12.953855|  -13.883800|   -0.000610|    0.002839|  5.0000e+02|   -8.454101|
CSysSolve::FGMRES(): system solved by initial guess.
|        1144|  2.0508e-02|  -12.957602|  -13.889127|   -0.000610|    0.002839|  5.0000e+02|   -8.457848|
CSysSolve::FGMRES(): system solved by initial guess.
|        1145|  2.0506e-02|  -12.961351|  -13.894815|   -0.000610|    0.002839|  5.0000e+02|   -8.461596|
|        1146|  2.0507e-02|  -12.965098|  -13.899822|   -0.000610|    0.002839|  5.0000e+02|   -8.465343|
CSysSolve::FGMRES(): system solved by initial guess.
|        1147|  2.0505e-02|  -12.968846|  -13.904735|   -0.000610|    0.002839|  5.0000e+02|   -8.469091|
CSysSolve::FGMRES(): system solved by initial guess.
|        1148|  2.0503e-02|  -12.972550|  -13.892278|   -0.000610|    0.002839|  5.0000e+02|   -8.472795|
CSysSolve::FGMRES(): system solved by initial guess.
|        1149|  2.0502e-02|  -12.976311|  -13.900622|   -0.000610|    0.002839|  5.0000e+02|   -8.476557|
CSysSolve::FGMRES(): system solved by initial guess.
|        1150|  2.0500e-02|  -12.980060|  -13.906644|   -0.000610|    0.002839|  5.0000e+02|   -8.480306|
CSysSolve::FGMRES(): system solved by initial guess.
|        1151|  2.0498e-02|  -12.983812|  -13.911997|   -0.000610|    0.002839|  5.0000e+02|   -8.484058|
CSysSolve::FGMRES(): system solved by initial guess.
|        1152|  2.0497e-02|  -12.987565|  -13.917628|   -0.000610|    0.002839|  5.0000e+02|   -8.487810|
|        1153|  2.0497e-02|  -12.991317|  -13.922534|   -0.000610|    0.002839|  5.0000e+02|   -8.491562|
CSysSolve::FGMRES(): system solved by initial guess.
|        1154|  2.0496e-02|  -12.995069|  -13.927515|   -0.000610|    0.002839|  5.0000e+02|   -8.495315|
CSysSolve::FGMRES(): system solved by initial guess.
|        1155|  2.0494e-02|  -12.998774|  -13.912552|   -0.000610|    0.002839|  5.0000e+02|   -8.499019|
CSysSolve::FGMRES(): system solved by initial guess.
|        1156|  2.0493e-02|  -13.002542|  -13.921274|   -0.000610|    0.002839|  5.0000e+02|   -8.502787|

----------------------------- Solver Exit -------------------------------
All convergence criteria satisfied.
+-----------------------------------------------------------------------+
|      Convergence Field     |     Value    |   Criterion  |  Converged |
+-----------------------------------------------------------------------+
|                    rms[Rho]|      -13.0025|         < -13|         Yes|
+-----------------------------------------------------------------------+
-------------------------------------------------------------------------
+-----------------------------------------------------------------------+
|        File Writing Summary       |              Filename             |
+-----------------------------------------------------------------------+
|SU2 restart                        |restart.dat                        |
|                                   |                        (1083 MB/s)|
|Paraview                           |vol_solution.vtu                   |
|                                   |                     (582.151 MB/s)|
|Paraview surface                   |surface.vtu                        |
|                                   |                     (19.8205 MB/s)|
+-----------------------------------------------------------------------+

Writing the forces breakdown file (forces_breakdown.dat).

------------------------- Solver Postprocessing -------------------------
Deleted CNumerics container.
Deleted CIntegration container.
Deleted CSolver container.
Deleted CIteration container.
Deleted CInterface container.
Deleted CGeometry container.
Deleted CFreeFormDefBox class.
Deleted CSurfaceMovement class.
Deleted CVolumetricMovement class.
Deleted CConfig container.
Deleted nInst container.
Deleted COutput class.
-------------------------------------------------------------------------


-------------------------- Performance Summary --------------------------
Simulation totals:
   Wall-clock time (hrs):   0.0066045 |            Core-hrs:   0.0066045
                   Cores:           1 |          DOFs/point:           5
             Points/core:        3381 |   Ghost points/core:           0
 Ghost/Owned Point Ratio:           0 | 

Preprocessing phase:
       Preproc. Time (s):   0.0580601 |   Preproc. Time (%):    0.244194

Compute phase:
        Compute Time (s):     23.7124 |    Compute Time (%):     99.7318
         Iteration count:        1157 |         Avg. s/iter:   0.0204948
     Core-s/iter/Mpoints:     6.06174 |           Mpoints/s:    0.164969

Output phase:
         Output Time (s):  0.00571142 |     Output Time (%):   0.0240216
            Output count:           1 |       Avg. s/output:  0.00571142
 Restart Aggr. BW (MB/s):     4915.18 |           MB/s/core:     4915.18
-------------------------------------------------------------------------


------------------------- Exit Success (SU2_CFD) ------------------------

Invalid MIT-MAGIC-COOKIE-1 key