running

-------------------------------------------------------------------------
|    ___ _   _ ___                                                      |
|   / __| | | |_  )   Release 7.0.8 "Blackbird"                         |
|   \__ \ |_| |/ /                                                      |
|   |___/\___//___|   Suite (Computational Fluid Dynamics Code)         |
|                                                                       |
-------------------------------------------------------------------------
| SU2 Project Website: https://su2code.github.io                        |
|                                                                       |
| The SU2 Project is maintained by the SU2 Foundation                   |
| (http://su2foundation.org)                                            |
-------------------------------------------------------------------------
| Copyright 2012-2020, SU2 Contributors                                 |
|                                                                       |
| SU2 is free software; you can redistribute it and/or                  |
| modify it under the terms of the GNU Lesser General Public            |
| License as published by the Free Software Foundation; either          |
| version 2.1 of the License, or (at your option) any later version.    |
|                                                                       |
| SU2 is distributed in the hope that it will be useful,                |
| but WITHOUT ANY WARRANTY; without even the implied warranty of        |
| MERCHANTABILITY or FITNESS FOR A PARTICULAR PURPOSE. See the GNU      |
| Lesser General Public License for more details.                       |
|                                                                       |
| You should have received a copy of the GNU Lesser General Public      |
| License along with SU2. If not, see <http://www.gnu.org/licenses/>.   |
-------------------------------------------------------------------------

Parsing config file for zone 0

----------------- Physical Case Definition ( Zone 0 ) -------------------
Compressible RANS equations.
Turbulence model: Spalart Allmaras
Hybrid RANS/LES: No Hybrid RANS/LES
Mach number: 0.2.
Angle of attack (AoA): 0 deg, and angle of sideslip (AoS): 0 deg.
Reynolds number: 5e+06. Reference length 1.
No restart solution, use the values at infinity (freestream).
Non-Dimensional simulation (P=1.0, Rho=1.0, T=1.0 at the farfield).
The reference area is 2 m^2.
The semi-span will be computed using the max y(3D) value.
The reference length is 1 m.
Reference origin for moment evaluation is (0, 0, 0).
Surface(s) where the force coefficients are evaluated: wall.

Surface(s) plotted in the output file: wall.
Input mesh file name: flatplate_turb_L1_545x385.su2

--------------- Space Numerical Integration ( Zone 0 ) ------------------
Roe (with entropy fix = 0.001) solver for the flow inviscid terms.
Standard Roe without low-dissipation function.
Second order integration in space, with slope limiter.
No slope-limiting method. 
Scalar upwind solver for the turbulence model.
First order integration in space.
Average of gradients with correction (viscous flow terms).
Average of gradients with correction (viscous turbulence terms).
Gradient for upwind reconstruction: Green-Gauss.
Gradient for viscous and source terms: Green-Gauss.

--------------- Time Numerical Integration  ( Zone 0 ) ------------------
Local time stepping (steady state simulation).
Euler implicit method for the flow equations.
FGMRES is used for solving the linear system.
Using a ILU(0) preconditioning.
Convergence criteria of the linear solver: 1e-10.
Max number of linear iterations: 10.
CFL adaptation. Factor down: 0.1, factor up: 1.2,
                lower limit: 10, upper limit: 500.
Courant-Friedrichs-Lewy number:       10
Euler implicit time integration for the turbulence model.

------------------ Convergence Criteria  ( Zone 0 ) ---------------------
Maximum number of solver subiterations: 99999.
Begin convergence monitoring at iteration 10.
Residual minimum value: 1e-13.
Cauchy series min. value: 1e-06.
Number of Cauchy elements: 100.
Begin windowed time average at iteration 0.

-------------------- Output Information ( Zone 0 ) ----------------------
Writing solution files every 250 iterations.
Writing the convergence history file every 1 inner iterations.
Writing the screen convergence history every 1 inner iterations.
The tabular file format is Tecplot (.dat).
Convergence history file name: history.
Forces breakdown file name: forces_breakdown.dat.
Surface file name: surface.
Volume file name: vol_solution.
Restart file name: restart.dat.

------------- Config File Boundary Information ( Zone 0 ) ---------------
+-----------------------------------------------------------------------+
|                        Marker Type|                        Marker Name|
+-----------------------------------------------------------------------+
|                     Symmetry plane|                           symmetry|
+-----------------------------------------------------------------------+
|                     Inlet boundary|                              inlet|
+-----------------------------------------------------------------------+
|                    Outlet boundary|                             outlet|
|                                   |                           farfield|
+-----------------------------------------------------------------------+
|                     Heat flux wall|                               wall|
+-----------------------------------------------------------------------+

-------------------- Output Preprocessing ( Zone 0 ) --------------------
Screen output fields: INNER_ITER, WALL_TIME, RMS_DENSITY, RMS_ENERGY, LIFT, DRAG, AVG_CFL, REL_RMS_DENSITY
History output group(s): ITER, AERO_COEFF, RMS_RES, REL_RMS_RES, CFL_NUMBER
Convergence field(s): RMS_DENSITY
Warning: No (valid) fields chosen for time convergence monitoring. Time convergence monitoring inactive.
Volume output fields: COORDINATES, SOLUTION, PRIMITIVE

------------------- Geometry Preprocessing ( Zone 0 ) -------------------
Two dimensional problem.
209825 grid points before partitioning.
208896 volume elements before partitioning.
5 surface markers.
544 boundary elements in index 0 (Marker = farfield).
384 boundary elements in index 1 (Marker = inlet).
384 boundary elements in index 2 (Marker = outlet).
96 boundary elements in index 3 (Marker = symmetry).
448 boundary elements in index 4 (Marker = wall).
Executing the partitioning functions.
Building the graph adjacency structure.
Calling ParMETIS... graph partitioning complete (4114 edge cuts).
Distributing ParMETIS coloring.
Rebalancing vertices.
Rebalancing volume element connectivity.
Rebalancing markers and surface elements.
218097 vertices including ghost points. 
213015 interior elements including halo cells. 
213015 quadrilaterals.
Establishing MPI communication patterns.
Setting point connectivity.
Renumbering points (Reverse Cuthill McKee Ordering).
Recomputing point connectivity.
Setting element connectivity.
Checking the numerical grid orientation.
All volume elements are correctly orientend.
All surface elements are correctly orientend.
Identifying edges and vertices.
Computing centers of gravity.
Setting the control volume structure.
Area of the computational grid: 2.35366.
Searching for the closest normal neighbors to the surfaces.
Storing a mapping from global to local point index.
Compute the surface curvature.
Max K: 399.444. Mean K: 11.3957. Standard deviation K: 53.6287.
Checking for periodicity.
Computing mesh quality statistics for the dual control volumes.
+--------------------------------------------------------------+
|           Mesh Quality Metric|        Minimum|        Maximum|
+--------------------------------------------------------------+
|    Orthogonality Angle (deg.)|             90|             90|
|     CV Face Area Aspect Ratio|        1.00001|        42958.5|
|           CV Sub-Volume Ratio|              1|        1.06418|
+--------------------------------------------------------------+
Finding max control volume width.
Communicating number of neighbors.
Wetted area = 0.0157876 m.
Area projection in the x-plane = 0 m, y-plane = 0 m.
Max. coordinate in the x-direction = 2 m, y-direction = 0 m.
Min. coordinate in the x-direction = 0 m, y-direction = 0 m.
Checking if Euler & Symmetry markers are straight/plane:
Boundary marker symmetry is a single straight.
Computing wall distances.

-------------------- Solver Preprocessing ( Zone 0 ) --------------------
Viscous flow: Computing pressure using the ideal gas law
based on the free-stream temperature and a density computed
from the Reynolds number.
Force coefficients computed using free-stream values.

-- Models:
+------------------------------------------------------------------------------+
|          Viscosity Model|        Conductivity Model|              Fluid Model|
+------------------------------------------------------------------------------+
|               SUTHERLAND|          CONSTANT_PRANDTL|             STANDARD_AIR|
+------------------------------------------------------------------------------+
-- Fluid properties:
+------------------------------------------------------------------------------+
|                  Name|    Dim. value|    Ref. value|      Unit|Non-dim. value|
+------------------------------------------------------------------------------+
|        Ref. Viscosity|     1.716e-05|       390.021|   N.s/m^2|   4.39976e-08|
|      Sutherland Temp.|        273.15|           300|         K|        0.9105|
|     Sutherland Const.|         110.4|           300|         K|         0.368|
+------------------------------------------------------------------------------+
|        Prandtl (Lam.)|             -|             -|         -|          0.72|
|       Prandtl (Turb.)|             -|             -|         -|           0.9|
+------------------------------------------------------------------------------+
|          Gas Constant|       287.058|       287.058|  N.m/kg.K|             1|
|      Spec. Heat Ratio|             -|             -|         -|           1.4|
+------------------------------------------------------------------------------+
-- Initial and free-stream conditions:
+------------------------------------------------------------------------------+
|                  Name|    Dim. value|    Ref. value|      Unit|Non-dim. value|
+------------------------------------------------------------------------------+
|       Static Pressure|        114455|        114455|        Pa|             1|
|               Density|       1.32905|       1.32905|    kg/m^3|             1|
|           Temperature|           300|           300|         K|             1|
|          Total Energy|        217705|       86117.4|   m^2/s^2|         2.528|
|            Velocity-X|       69.4448|       293.458|       m/s|      0.236643|
|            Velocity-Y|             0|       293.458|       m/s|             0|
|    Velocity Magnitude|       69.4448|       293.458|       m/s|      0.236643|
+------------------------------------------------------------------------------+
|             Viscosity|   1.84592e-05|       390.021|   N.s/m^2|   4.73286e-08|
|          Conductivity|             -|        111959|   W/m^2.K|             -|
|     Turb. Kin. Energy|       18.0847|       86117.4|   m^2/s^2|       0.00021|
|     Spec. Dissipation|        130209|       293.458|       1/s|       443.706|
+------------------------------------------------------------------------------+
|           Mach Number|             -|             -|         -|           0.2|
|       Reynolds Number|             -|             -|         -|         5e+06|
+------------------------------------------------------------------------------+
Initialize Jacobian structure (Navier-Stokes). MG level: 0.
Initialize Jacobian structure (SA model).

------------------- Numerics Preprocessing ( Zone 0 ) -------------------

----------------- Integration Preprocessing ( Zone 0 ) ------------------

------------------- Iteration Preprocessing ( Zone 0 ) ------------------
Euler/Navier-Stokes/RANS fluid iteration.

------------------------------ Begin Solver -----------------------------

Simulation Run using the Single-zone Driver
+-------------------------------------------------------------------------------------------------------+
|  Inner_Iter|   Time(sec)|    rms[Rho]|   rms[RhoE]|          CL|          CD|     Avg CFL| relrms[Rho]|
+-------------------------------------------------------------------------------------------------------+
|           0|  1.3226e-01|   -9.011014|   -8.476592|   -0.400000|    0.806872|  1.2000e+01|    0.000000|
|           1|  1.3109e-01|   -5.858613|   -5.246723|   -0.281230|    0.601223|  1.4400e+01|    0.000000|
|           2|  1.4339e-01|   -6.248255|   -5.677060|   -0.134271|    0.463154|  1.7280e+01|   -0.389641|
|           3|  1.4697e-01|   -6.307061|   -5.771510|   -0.037798|    0.370254|  2.0736e+01|   -0.448448|
|           4|  1.4704e-01|   -6.619273|   -6.106849|   -0.001367|    0.305759|  2.4883e+01|   -0.760660|
|           5|  1.4342e-01|   -6.876339|   -6.303718|    0.004584|    0.258872|  2.9860e+01|   -1.017726|
|           6|  1.4211e-01|   -7.031667|   -6.435688|    0.003338|    0.223185|  3.5832e+01|   -1.173054|
|           7|  1.3980e-01|   -7.166091|   -6.584008|    0.001987|    0.194946|  4.2998e+01|   -1.307478|
|           8|  1.3819e-01|   -7.293945|   -6.712615|    0.000784|    0.171901|  5.1598e+01|   -1.435332|
|           9|  1.3709e-01|   -7.401138|   -6.813232|   -0.000370|    0.152646|  6.1917e+01|   -1.542525|
|          10|  1.3650e-01|   -7.490663|   -6.901259|   -0.001244|    0.136262|  7.4301e+01|   -1.632050|
|          11|  1.3843e-01|   -7.577482|   -6.987488|   -0.001793|    0.122122|  8.9161e+01|   -1.718869|
|          12|  1.3952e-01|   -7.661769|   -7.070391|   -0.002116|    0.109781|  1.0699e+02|   -1.803156|
|          13|  1.4107e-01|   -7.738227|   -7.146317|   -0.002281|    0.098916|  1.2839e+02|   -1.879614|
|          14|  1.4237e-01|   -7.792490|   -7.205018|   -0.002297|    0.089283|  1.5407e+02|   -1.933877|
|          15|  1.4275e-01|   -7.800360|   -7.225197|   -0.002093|    0.080695|  1.8488e+02|   -1.941747|
|          16|  1.4345e-01|   -7.800714|   -7.233376|   -0.001497|    0.073004|  2.2186e+02|   -1.942101|
|          17|  1.4274e-01|   -7.877151|   -7.305747|   -0.000286|    0.066092|  2.6623e+02|   -2.018537|
|          18|  1.4213e-01|   -7.983869|   -7.408343|    0.001609|    0.059862|  3.1948e+02|   -2.125255|
|          19|  1.4136e-01|   -7.982476|   -7.415889|    0.003841|    0.054233|  3.8338e+02|   -2.123863|
|          20|  1.4059e-01|   -7.975449|   -7.415360|    0.005629|    0.049143|  4.6005e+02|   -2.116836|
|          21|  1.4099e-01|   -7.994732|   -7.442200|    0.006293|    0.044534|  5.0000e+02|   -2.136119|
|          22|  1.4031e-01|   -7.978733|   -7.425050|    0.005785|    0.040665|  5.0000e+02|   -2.120119|
|          23|  1.3972e-01|   -8.045131|   -7.484370|    0.004494|    0.037572|  5.0000e+02|   -2.186517|
|          24|  1.3909e-01|   -8.208308|   -7.640665|    0.002779|    0.035036|  5.0000e+02|   -2.349695|
|          25|  1.3941e-01|   -8.351909|   -7.780478|    0.001047|    0.032911|  5.0000e+02|   -2.493296|
|          26|  1.3924e-01|   -8.405658|   -7.837170|   -0.000341|    0.031100|  5.0000e+02|   -2.547045|
|          27|  1.3873e-01|   -8.439318|   -7.873235|   -0.001209|    0.029531|  5.0000e+02|   -2.580705|
|          28|  1.3827e-01|   -8.491656|   -7.927671|   -0.001594|    0.028157|  5.0000e+02|   -2.633043|
|          29|  1.3832e-01|   -8.537582|   -7.974749|   -0.001628|    0.026940|  5.0000e+02|   -2.678969|
|          30|  1.3796e-01|   -8.538456|   -7.973915|   -0.001421|    0.025854|  5.0000e+02|   -2.679843|
|          31|  1.3759e-01|   -8.516039|   -7.948265|   -0.001045|    0.024876|  5.0000e+02|   -2.657426|
|          32|  1.3732e-01|   -8.520982|   -7.950043|   -0.000569|    0.023991|  5.0000e+02|   -2.662368|
|          33|  1.3697e-01|   -8.567793|   -7.994111|   -0.000060|    0.023184|  5.0000e+02|   -2.709180|
|          34|  1.3661e-01|   -8.644293|   -8.069448|    0.000431|    0.022444|  5.0000e+02|   -2.785680|
|          35|  1.3645e-01|   -8.720370|   -8.148679|    0.000836|    0.021764|  5.0000e+02|   -2.861757|
|          36|  1.3748e-01|   -8.738252|   -8.174357|    0.001076|    0.021134|  5.0000e+02|   -2.879639|
|          37|  1.3721e-01|   -8.696941|   -8.136593|    0.001097|    0.020550|  5.0000e+02|   -2.838328|
|          38|  1.3687e-01|   -8.660776|   -8.098623|    0.000906|    0.020006|  5.0000e+02|   -2.802163|
|          39|  1.3655e-01|   -8.662885|   -8.096829|    0.000563|    0.019498|  5.0000e+02|   -2.804272|
|          40|  1.3630e-01|   -8.716251|   -8.145165|    0.000150|    0.019022|  5.0000e+02|   -2.857637|
|          41|  1.3606e-01|   -8.807446|   -8.232640|   -0.000245|    0.018575|  5.0000e+02|   -2.948833|
|          42|  1.3598e-01|   -8.886768|   -8.314646|   -0.000539|    0.018154|  5.0000e+02|   -3.028155|
|          43|  1.3588e-01|   -8.879368|   -8.315146|   -0.000677|    0.017756|  5.0000e+02|   -3.020755|
|          44|  1.3580e-01|   -8.831870|   -8.269654|   -0.000653|    0.017380|  5.0000e+02|   -2.973257|
|          45|  1.3571e-01|   -8.814427|   -8.249592|   -0.000494|    0.017024|  5.0000e+02|   -2.955814|
|          46|  1.3562e-01|   -8.839418|   -8.270502|   -0.000255|    0.016685|  5.0000e+02|   -2.980804|
|          47|  1.3564e-01|   -8.898009|   -8.325884|    0.000004|    0.016363|  5.0000e+02|   -3.039395|
|          48|  1.3542e-01|   -8.962015|   -8.390772|    0.000223|    0.016057|  5.0000e+02|   -3.103401|
|          49|  1.3521e-01|   -8.983583|   -8.417973|    0.000363|    0.015764|  5.0000e+02|   -3.124969|
|          50|  1.3503e-01|   -8.965459|   -8.403126|    0.000410|    0.015485|  5.0000e+02|   -3.106846|
|          51|  1.3484e-01|   -8.951027|   -8.387382|    0.000369|    0.015218|  5.0000e+02|   -3.092414|
|          52|  1.3469e-01|   -8.959868|   -8.392848|    0.000261|    0.014962|  5.0000e+02|   -3.101255|
|          53|  1.3459e-01|   -8.993484|   -8.423214|    0.000114|    0.014717|  5.0000e+02|   -3.134871|
|          54|  1.3450e-01|   -9.045033|   -8.473326|   -0.000040|    0.014482|  5.0000e+02|   -3.186419|
|          55|  1.3431e-01|   -9.091218|   -8.521326|   -0.000169|    0.014256|  5.0000e+02|   -3.232605|
|          56|  1.3413e-01|   -9.104782|   -8.538347|   -0.000252|    0.014038|  5.0000e+02|   -3.246169|
|          57|  1.3397e-01|   -9.094626|   -8.529436|   -0.000282|    0.013829|  5.0000e+02|   -3.236013|
|          58|  1.3387e-01|   -9.087302|   -8.520989|   -0.000261|    0.013627|  5.0000e+02|   -3.228689|
|          59|  1.3371e-01|   -9.095286|   -8.527254|   -0.000199|    0.013433|  5.0000e+02|   -3.236673|
|          60|  1.3381e-01|   -9.119417|   -8.550347|   -0.000113|    0.013245|  5.0000e+02|   -3.260804|
|          61|  1.3377e-01|   -9.152481|   -8.583571|   -0.000022|    0.013064|  5.0000e+02|   -3.293868|
|          62|  1.3414e-01|   -9.178635|   -8.610939|    0.000056|    0.012889|  5.0000e+02|   -3.320022|
|          63|  1.3401e-01|   -9.187745|   -8.621239|    0.000108|    0.012719|  5.0000e+02|   -3.329132|
|          64|  1.3385e-01|   -9.186350|   -8.620018|    0.000129|    0.012555|  5.0000e+02|   -3.327736|
|          65|  1.3370e-01|   -9.186441|   -8.619413|    0.000118|    0.012396|  5.0000e+02|   -3.327827|
|          66|  1.3371e-01|   -9.195289|   -8.627272|    0.000083|    0.012242|  5.0000e+02|   -3.336675|
|          67|  1.3378e-01|   -9.213995|   -8.645139|    0.000032|    0.012093|  5.0000e+02|   -3.355382|
|          68|  1.3371e-01|   -9.238195|   -8.668847|   -0.000023|    0.011948|  5.0000e+02|   -3.379582|
|          69|  1.3367e-01|   -9.258878|   -8.689535|   -0.000071|    0.011808|  5.0000e+02|   -3.400265|
|          70|  1.3361e-01|   -9.269626|   -8.700711|   -0.000105|    0.011671|  5.0000e+02|   -3.411013|
|          71|  1.3347e-01|   -9.272127|   -8.703719|   -0.000120|    0.011539|  5.0000e+02|   -3.413514|
|          72|  1.3335e-01|   -9.272906|   -8.704819|   -0.000115|    0.011410|  5.0000e+02|   -3.414292|
|          73|  1.3324e-01|   -9.277185|   -8.709170|   -0.000095|    0.011284|  5.0000e+02|   -3.418572|
|          74|  1.3316e-01|   -9.286490|   -8.718362|   -0.000065|    0.011162|  5.0000e+02|   -3.427877|
|          75|  1.3304e-01|   -9.298802|   -8.730486|   -0.000033|    0.011044|  5.0000e+02|   -3.440189|
|          76|  1.3292e-01|   -9.310373|   -8.741924|   -0.000006|    0.010928|  5.0000e+02|   -3.451760|
|          77|  1.3281e-01|   -9.319288|   -8.750772|    0.000013|    0.010815|  5.0000e+02|   -3.460675|
|          78|  1.3271e-01|   -9.326082|   -8.757493|    0.000021|    0.010705|  5.0000e+02|   -3.467469|
|          79|  1.3261e-01|   -9.332432|   -8.763724|    0.000017|    0.010598|  5.0000e+02|   -3.473819|
|          80|  1.3250e-01|   -9.339815|   -8.770952|    0.000005|    0.010494|  5.0000e+02|   -3.481202|
|          81|  1.3239e-01|   -9.348636|   -8.779629|   -0.000012|    0.010392|  5.0000e+02|   -3.490023|
|          82|  1.3230e-01|   -9.358058|   -8.788976|   -0.000030|    0.010292|  5.0000e+02|   -3.499445|
|          83|  1.3221e-01|   -9.366679|   -8.797628|   -0.000045|    0.010195|  5.0000e+02|   -3.508066|
|          84|  1.3211e-01|   -9.373629|   -8.804685|   -0.000055|    0.010100|  5.0000e+02|   -3.515016|
|          85|  1.3202e-01|   -9.378984|   -8.810172|   -0.000059|    0.010007|  5.0000e+02|   -3.520370|
|          86|  1.3192e-01|   -9.383488|   -8.814800|   -0.000057|    0.009917|  5.0000e+02|   -3.524875|
|          87|  1.3185e-01|   -9.388025|   -8.819453|   -0.000049|    0.009828|  5.0000e+02|   -3.529412|
|          88|  1.3176e-01|   -9.393086|   -8.824642|   -0.000038|    0.009742|  5.0000e+02|   -3.534473|
|          89|  1.3173e-01|   -9.398537|   -8.830244|   -0.000027|    0.009657|  5.0000e+02|   -3.539924|
|          90|  1.3165e-01|   -9.404019|   -8.835887|   -0.000017|    0.009574|  5.0000e+02|   -3.545406|
|          91|  1.3159e-01|   -9.409367|   -8.841371|   -0.000011|    0.009493|  5.0000e+02|   -3.550753|
|          92|  1.3164e-01|   -9.414620|   -8.846714|   -0.000008|    0.009413|  5.0000e+02|   -3.556007|
|          93|  1.3156e-01|   -9.419908|   -8.852053|   -0.000010|    0.009336|  5.0000e+02|   -3.561295|
|          94|  1.3160e-01|   -9.425329|   -8.857515|   -0.000014|    0.009260|  5.0000e+02|   -3.566716|
|          95|  1.3154e-01|   -9.430784|   -8.863034|   -0.000021|    0.009185|  5.0000e+02|   -3.572171|
|          96|  1.3152e-01|   -9.435964|   -8.868325|   -0.000028|    0.009112|  5.0000e+02|   -3.577351|
|          97|  1.3161e-01|   -9.440611|   -8.873133|   -0.000033|    0.009040|  5.0000e+02|   -3.581998|
|          98|  1.3154e-01|   -9.444723|   -8.877429|   -0.000037|    0.008970|  5.0000e+02|   -3.586110|
|          99|  1.3146e-01|   -9.448550|   -8.881431|   -0.000038|    0.008901|  5.0000e+02|   -3.589937|
|         100|  1.3141e-01|   -9.452430|   -8.885459|   -0.000037|    0.008834|  5.0000e+02|   -3.593817|
|         101|  1.3138e-01|   -9.456591|   -8.889741|   -0.000033|    0.008767|  5.0000e+02|   -3.597978|
|         102|  1.3146e-01|   -9.461042|   -8.894304|   -0.000028|    0.008702|  5.0000e+02|   -3.602429|
|         103|  1.3185e-01|   -9.465610|   -8.898989|   -0.000023|    0.008639|  5.0000e+02|   -3.606997|
|         104|  1.3213e-01|   -9.470077|   -8.903587|   -0.000018|    0.008576|  5.0000e+02|   -3.611464|
|         105|  1.3239e-01|   -9.474328|   -8.907975|   -0.000014|    0.008515|  5.0000e+02|   -3.615714|
|         106|  1.3257e-01|   -9.478389|   -8.912172|   -0.000012|    0.008455|  5.0000e+02|   -3.619776|
|         107|  1.3249e-01|   -9.482384|   -8.916294|   -0.000012|    0.008395|  5.0000e+02|   -3.623771|
|         108|  1.3243e-01|   -9.486423|   -8.920451|   -0.000013|    0.008337|  5.0000e+02|   -3.627810|
|         109|  1.3235e-01|   -9.490523|   -8.924668|   -0.000015|    0.008280|  5.0000e+02|   -3.631910|
|         110|  1.3229e-01|   -9.494606|   -8.928873|   -0.000018|    0.008224|  5.0000e+02|   -3.635993|
|         111|  1.3222e-01|   -9.498557|   -8.932958|   -0.000020|    0.008169|  5.0000e+02|   -3.639944|
|         112|  1.3215e-01|   -9.502300|   -8.936849|   -0.000021|    0.008115|  5.0000e+02|   -3.643687|
|         113|  1.3208e-01|   -9.505834|   -8.940542|   -0.000022|    0.008062|  5.0000e+02|   -3.647221|
|         114|  1.3201e-01|   -9.509228|   -8.944098|   -0.000022|    0.008010|  5.0000e+02|   -3.650614|
|         115|  1.3194e-01|   -9.512571|   -8.947603|   -0.000021|    0.007958|  5.0000e+02|   -3.653958|
|         116|  1.3189e-01|   -9.515936|   -8.951127|   -0.000020|    0.007908|  5.0000e+02|   -3.657323|
|         117|  1.3184e-01|   -9.519354|   -8.954699|   -0.000018|    0.007858|  5.0000e+02|   -3.660740|
|         118|  1.3177e-01|   -9.522814|   -8.958310|   -0.000016|    0.007809|  5.0000e+02|   -3.664201|
|         119|  1.3170e-01|   -9.526288|   -8.961934|   -0.000014|    0.007761|  5.0000e+02|   -3.667675|
|         120|  1.3164e-01|   -9.529747|   -8.965541|   -0.000013|    0.007714|  5.0000e+02|   -3.671133|
|         121|  1.3159e-01|   -9.533164|   -8.969110|   -0.000013|    0.007667|  5.0000e+02|   -3.674551|
|         122|  1.3161e-01|   -9.536525|   -8.972626|   -0.000012|    0.007622|  5.0000e+02|   -3.677912|
|         123|  1.3156e-01|   -9.539812|   -8.976075|   -0.000012|    0.007577|  5.0000e+02|   -3.681199|
|         124|  1.3150e-01|   -9.543010|   -8.979440|   -0.000012|    0.007533|  5.0000e+02|   -3.684397|
|         125|  1.3144e-01|   -9.546103|   -8.982704|   -0.000012|    0.007489|  5.0000e+02|   -3.687490|
|         126|  1.3138e-01|   -9.549081|   -8.985860|   -0.000012|    0.007446|  5.0000e+02|   -3.690468|
|         127|  1.3134e-01|   -9.551950|   -8.988909|   -0.000011|    0.007404|  5.0000e+02|   -3.693337|
|         128|  1.3129e-01|   -9.554723|   -8.991866|   -0.000011|    0.007362|  5.0000e+02|   -3.696110|
|         129|  1.3124e-01|   -9.557423|   -8.994754|   -0.000010|    0.007322|  5.0000e+02|   -3.698810|
|         130|  1.3119e-01|   -9.560075|   -8.997595|   -0.000008|    0.007281|  5.0000e+02|   -3.701461|
|         131|  1.3113e-01|   -9.562695|   -9.000408|   -0.000007|    0.007242|  5.0000e+02|   -3.704081|
|         132|  1.3111e-01|   -9.565292|   -9.003203|   -0.000006|    0.007203|  5.0000e+02|   -3.706679|
|         133|  1.3111e-01|   -9.567868|   -9.005978|   -0.000006|    0.007164|  5.0000e+02|   -3.709254|
|         134|  1.3109e-01|   -9.570412|   -9.008726|   -0.000005|    0.007127|  5.0000e+02|   -3.711799|
|         135|  1.3110e-01|   -9.572912|   -9.011434|   -0.000005|    0.007089|  5.0000e+02|   -3.714298|
|         136|  1.3110e-01|   -9.575352|   -9.014086|   -0.000005|    0.007053|  5.0000e+02|   -3.716739|
|         137|  1.3118e-01|   -9.577723|   -9.016669|   -0.000005|    0.007017|  5.0000e+02|   -3.719109|
|         138|  1.3117e-01|   -9.580016|   -9.019179|   -0.000004|    0.006981|  5.0000e+02|   -3.721403|
|         139|  1.3112e-01|   -9.582236|   -9.021614|   -0.000004|    0.006946|  5.0000e+02|   -3.723622|
|         140|  1.3117e-01|   -9.584389|   -9.023985|   -0.000004|    0.006911|  5.0000e+02|   -3.725775|
|         141|  1.3117e-01|   -9.586487|   -9.026303|   -0.000003|    0.006877|  5.0000e+02|   -3.727874|
|         142|  1.3112e-01|   -9.588542|   -9.028580|   -0.000003|    0.006844|  5.0000e+02|   -3.729929|
|         143|  1.3107e-01|   -9.590564|   -9.030826|   -0.000002|    0.006811|  5.0000e+02|   -3.731951|
|         144|  1.3102e-01|   -9.592555|   -9.033047|   -0.000001|    0.006778|  5.0000e+02|   -3.733942|
|         145|  1.3098e-01|   -9.594517|   -9.035242|   -0.000000|    0.006746|  5.0000e+02|   -3.735904|
|         146|  1.3092e-01|   -9.596446|   -9.037408|    0.000001|    0.006715|  5.0000e+02|   -3.737833|
|         147|  1.3095e-01|   -9.598338|   -9.039539|    0.000002|    0.006683|  5.0000e+02|   -3.739725|
|         148|  1.3090e-01|   -9.600187|   -9.041631|    0.000002|    0.006653|  5.0000e+02|   -3.741574|
|         149|  1.3096e-01|   -9.601987|   -9.043675|    0.000003|    0.006623|  5.0000e+02|   -3.743374|
|         150|  1.3093e-01|   -9.603734|   -9.045667|    0.000004|    0.006593|  5.0000e+02|   -3.745121|
|         151|  1.3101e-01|   -9.605421|   -9.047601|    0.000004|    0.006563|  5.0000e+02|   -3.746808|
|         152|  1.3097e-01|   -9.607046|   -9.049475|    0.000005|    0.006534|  5.0000e+02|   -3.748433|
|         153|  1.3093e-01|   -9.608608|   -9.051289|    0.000005|    0.006506|  5.0000e+02|   -3.749995|
|         154|  1.3089e-01|   -9.610110|   -9.053046|    0.000006|    0.006478|  5.0000e+02|   -3.751497|
|         155|  1.3087e-01|   -9.611558|   -9.054752|    0.000006|    0.006450|  5.0000e+02|   -3.752945|
|         156|  1.3090e-01|   -9.612958|   -9.056413|    0.000007|    0.006423|  5.0000e+02|   -3.754345|
|         157|  1.3091e-01|   -9.614316|   -9.058035|    0.000008|    0.006396|  5.0000e+02|   -3.755703|
|         158|  1.3087e-01|   -9.615639|   -9.059624|    0.000008|    0.006369|  5.0000e+02|   -3.757026|
|         159|  1.3083e-01|   -9.616929|   -9.061182|    0.000009|    0.006343|  5.0000e+02|   -3.758316|
|         160|  1.3079e-01|   -9.618185|   -9.062707|    0.000010|    0.006317|  5.0000e+02|   -3.759572|
|         161|  1.3079e-01|   -9.619407|   -9.064200|    0.000010|    0.006292|  5.0000e+02|   -3.760794|
|         162|  1.3075e-01|   -9.620591|   -9.065656|    0.000011|    0.006267|  5.0000e+02|   -3.761978|
|         163|  1.3073e-01|   -9.621736|   -9.067075|    0.000012|    0.006242|  5.0000e+02|   -3.763123|
|         164|  1.3069e-01|   -9.622839|   -9.068454|    0.000013|    0.006218|  5.0000e+02|   -3.764226|
|         165|  1.3067e-01|   -9.623901|   -9.069793|    0.000013|    0.006194|  5.0000e+02|   -3.765288|
|         166|  1.3066e-01|   -9.624922|   -9.071093|    0.000014|    0.006170|  5.0000e+02|   -3.766309|
|         167|  1.3070e-01|   -9.625903|   -9.072353|    0.000015|    0.006147|  5.0000e+02|   -3.767290|
|         168|  1.3066e-01|   -9.626845|   -9.073577|    0.000015|    0.006124|  5.0000e+02|   -3.768232|
|         169|  1.3064e-01|   -9.627750|   -9.074764|    0.000016|    0.006102|  5.0000e+02|   -3.769137|
|         170|  1.3063e-01|   -9.628619|   -9.075916|    0.000017|    0.006079|  5.0000e+02|   -3.770006|
|         171|  1.3062e-01|   -9.629454|   -9.077035|    0.000018|    0.006057|  5.0000e+02|   -3.770841|
|         172|  1.3058e-01|   -9.630256|   -9.078121|    0.000018|    0.006036|  5.0000e+02|   -3.771643|
|         173|  1.3054e-01|   -9.631026|   -9.079176|    0.000019|    0.006014|  5.0000e+02|   -3.772413|
|         174|  1.3050e-01|   -9.631766|   -9.080201|    0.000020|    0.005993|  5.0000e+02|   -3.773153|
|         175|  1.3047e-01|   -9.632476|   -9.081197|    0.000020|    0.005973|  5.0000e+02|   -3.773863|
|         176|  1.3045e-01|   -9.633159|   -9.082165|    0.000021|    0.005952|  5.0000e+02|   -3.774545|
|         177|  1.3042e-01|   -9.633814|   -9.083106|    0.000022|    0.005932|  5.0000e+02|   -3.775201|
|         178|  1.3038e-01|   -9.634444|   -9.084020|    0.000023|    0.005912|  5.0000e+02|   -3.775831|
|         179|  1.3034e-01|   -9.635049|   -9.084909|    0.000023|    0.005893|  5.0000e+02|   -3.776436|
|         180|  1.3033e-01|   -9.635632|   -9.085774|    0.000024|    0.005874|  5.0000e+02|   -3.777019|
|         181|  1.3030e-01|   -9.636192|   -9.086616|    0.000025|    0.005855|  5.0000e+02|   -3.777579|
|         182|  1.3027e-01|   -9.636732|   -9.087435|    0.000026|    0.005836|  5.0000e+02|   -3.778119|
|         183|  1.3025e-01|   -9.637252|   -9.088233|    0.000026|    0.005817|  5.0000e+02|   -3.778639|
|         184|  1.3029e-01|   -9.637753|   -9.089011|    0.000027|    0.005799|  5.0000e+02|   -3.779140|
|         185|  1.3026e-01|   -9.638238|   -9.089769|    0.000028|    0.005781|  5.0000e+02|   -3.779625|
|         186|  1.3030e-01|   -9.638706|   -9.090509|    0.000029|    0.005764|  5.0000e+02|   -3.780093|
|         187|  1.3027e-01|   -9.639158|   -9.091231|    0.000030|    0.005747|  5.0000e+02|   -3.780545|
|         188|  1.3029e-01|   -9.639598|   -9.091938|    0.000031|    0.005729|  5.0000e+02|   -3.780984|
|         189|  1.3027e-01|   -9.640023|   -9.092627|    0.000032|    0.005713|  5.0000e+02|   -3.781410|
|         190|  1.3024e-01|   -9.640438|   -9.093303|    0.000033|    0.005696|  5.0000e+02|   -3.781825|
|         191|  1.3025e-01|   -9.640843|   -9.093965|    0.000033|    0.005680|  5.0000e+02|   -3.782229|
|         192|  1.3023e-01|   -9.641237|   -9.094613|    0.000034|    0.005664|  5.0000e+02|   -3.782624|
|         193|  1.3020e-01|   -9.641624|   -9.095251|    0.000035|    0.005648|  5.0000e+02|   -3.783011|
|         194|  1.3024e-01|   -9.642003|   -9.095876|    0.000036|    0.005632|  5.0000e+02|   -3.783390|
|         195|  1.3021e-01|   -9.642377|   -9.096494|    0.000037|    0.005617|  5.0000e+02|   -3.783764|
|         196|  1.3019e-01|   -9.642748|   -9.097104|    0.000037|    0.005602|  5.0000e+02|   -3.784135|
|         197|  1.3016e-01|   -9.643117|   -9.097708|    0.000038|    0.005587|  5.0000e+02|   -3.784504|
|         198|  1.3014e-01|   -9.643488|   -9.098310|    0.000039|    0.005572|  5.0000e+02|   -3.784875|
|         199|  1.3018e-01|   -9.643860|   -9.098910|    0.000040|    0.005558|  5.0000e+02|   -3.785247|
|         200|  1.3017e-01|   -9.644239|   -9.099512|    0.000041|    0.005544|  5.0000e+02|   -3.785626|
|         201|  1.3014e-01|   -9.644624|   -9.100117|    0.000042|    0.005530|  5.0000e+02|   -3.786011|
|         202|  1.3011e-01|   -9.645017|   -9.100725|    0.000043|    0.005516|  5.0000e+02|   -3.786404|
|         203|  1.3009e-01|   -9.645419|   -9.101338|    0.000044|    0.005502|  5.0000e+02|   -3.786805|
|         204|  1.3006e-01|   -9.645827|   -9.101955|    0.000044|    0.005489|  5.0000e+02|   -3.787214|
|         205|  1.3003e-01|   -9.646247|   -9.102578|    0.000045|    0.005476|  5.0000e+02|   -3.787634|
|         206|  1.3000e-01|   -9.646674|   -9.103205|    0.000046|    0.005463|  5.0000e+02|   -3.788061|
|         207|  1.2997e-01|   -9.647111|   -9.103837|    0.000047|    0.005450|  5.0000e+02|   -3.788498|
|         208|  1.2995e-01|   -9.647556|   -9.104473|    0.000048|    0.005438|  5.0000e+02|   -3.788943|
|         209|  1.2993e-01|   -9.648010|   -9.105113|    0.000049|    0.005425|  5.0000e+02|   -3.789396|
|         210|  1.2990e-01|   -9.648473|   -9.105759|    0.000050|    0.005413|  5.0000e+02|   -3.789860|
|         211|  1.2987e-01|   -9.648944|   -9.106408|    0.000051|    0.005401|  5.0000e+02|   -3.790331|
|         212|  1.2985e-01|   -9.649427|   -9.107064|    0.000052|    0.005389|  5.0000e+02|   -3.790814|
|         213|  1.2983e-01|   -9.649920|   -9.107726|    0.000053|    0.005378|  5.0000e+02|   -3.791307|
|         214|  1.2980e-01|   -9.650425|   -9.108395|    0.000054|    0.005366|  5.0000e+02|   -3.791812|
|         215|  1.2978e-01|   -9.650942|   -9.109072|    0.000055|    0.005355|  5.0000e+02|   -3.792329|
|         216|  1.2975e-01|   -9.651471|   -9.109757|    0.000056|    0.005344|  5.0000e+02|   -3.792858|
|         217|  1.2974e-01|   -9.652014|   -9.110452|    0.000057|    0.005333|  5.0000e+02|   -3.793401|
|         218|  1.2971e-01|   -9.652568|   -9.111154|    0.000058|    0.005322|  5.0000e+02|   -3.793955|
|         219|  1.2969e-01|   -9.653138|   -9.111867|    0.000059|    0.005312|  5.0000e+02|   -3.794525|
|         220|  1.2966e-01|   -9.653720|   -9.112587|    0.000060|    0.005301|  5.0000e+02|   -3.795107|
|         221|  1.2963e-01|   -9.654318|   -9.113319|    0.000061|    0.005291|  5.0000e+02|   -3.795705|
|         222|  1.2963e-01|   -9.654929|   -9.114060|    0.000062|    0.005281|  5.0000e+02|   -3.796316|
|         223|  1.2960e-01|   -9.655554|   -9.114812|    0.000063|    0.005271|  5.0000e+02|   -3.796941|
|         224|  1.2957e-01|   -9.656193|   -9.115573|    0.000064|    0.005261|  5.0000e+02|   -3.797580|
|         225|  1.2955e-01|   -9.656846|   -9.116344|    0.000065|    0.005252|  5.0000e+02|   -3.798233|
|         226|  1.2956e-01|   -9.657513|   -9.117125|    0.000066|    0.005242|  5.0000e+02|   -3.798900|
|         227|  1.2954e-01|   -9.658191|   -9.117913|    0.000067|    0.005233|  5.0000e+02|   -3.799578|
|         228|  1.2952e-01|   -9.658883|   -9.118712|    0.000068|    0.005223|  5.0000e+02|   -3.800270|
|         229|  1.2949e-01|   -9.659586|   -9.119517|    0.000069|    0.005214|  5.0000e+02|   -3.800973|
|         230|  1.2949e-01|   -9.660303|   -9.120331|    0.000070|    0.005205|  5.0000e+02|   -3.801689|
|         231|  1.2965e-01|   -9.661029|   -9.121151|    0.000072|    0.005197|  5.0000e+02|   -3.802416|
|         232|  1.2971e-01|   -9.661768|   -9.121979|    0.000073|    0.005188|  5.0000e+02|   -3.803155|
|         233|  1.2984e-01|   -9.662517|   -9.122814|    0.000074|    0.005179|  5.0000e+02|   -3.803904|
|         234|  1.2995e-01|   -9.663277|   -9.123656|    0.000075|    0.005171|  5.0000e+02|   -3.804664|
|         235|  1.2993e-01|   -9.664048|   -9.124504|    0.000076|    0.005162|  5.0000e+02|   -3.805435|
|         236|  1.2991e-01|   -9.664829|   -9.125359|    0.000077|    0.005154|  5.0000e+02|   -3.806215|
|         237|  1.2990e-01|   -9.665621|   -9.126221|    0.000078|    0.005146|  5.0000e+02|   -3.807007|
|         238|  1.2988e-01|   -9.666421|   -9.127089|    0.000079|    0.005138|  5.0000e+02|   -3.807808|
|         239|  1.2986e-01|   -9.667233|   -9.127964|    0.000080|    0.005130|  5.0000e+02|   -3.808620|
|         240|  1.2985e-01|   -9.668053|   -9.128844|    0.000081|    0.005122|  5.0000e+02|   -3.809440|
|         241|  1.2985e-01|   -9.668884|   -9.129730|    0.000082|    0.005114|  5.0000e+02|   -3.810270|
|         242|  1.2984e-01|   -9.669722|   -9.130621|    0.000083|    0.005107|  5.0000e+02|   -3.811108|
|         243|  1.2981e-01|   -9.670568|   -9.131518|    0.000084|    0.005099|  5.0000e+02|   -3.811955|
|         244|  1.2979e-01|   -9.671421|   -9.132418|    0.000085|    0.005092|  5.0000e+02|   -3.812808|
|         245|  1.2977e-01|   -9.672281|   -9.133322|    0.000086|    0.005084|  5.0000e+02|   -3.813668|
|         246|  1.2976e-01|   -9.673147|   -9.134230|    0.000088|    0.005077|  5.0000e+02|   -3.814533|
|         247|  1.2974e-01|   -9.674017|   -9.135139|    0.000089|    0.005070|  5.0000e+02|   -3.815404|
|         248|  1.2978e-01|   -9.674893|   -9.136052|    0.000090|    0.005063|  5.0000e+02|   -3.816280|
|         249|  1.2976e-01|   -9.675772|   -9.136966|    0.000091|    0.005056|  5.0000e+02|   -3.817159|
|         250|  1.2975e-01|   -9.676657|   -9.137882|    0.000092|    0.005049|  5.0000e+02|   -3.818044|
+-----------------------------------------------------------------------+
|        File Writing Summary       |              Filename             |
+-----------------------------------------------------------------------+
|SU2 restart                        |restart.dat                        |
|                                   |                     (841.519 MB/s)|
|Paraview                           |vol_solution.vtu                   |
|                                   |                     (735.065 MB/s)|
|Paraview surface                   |surface.vtu                        |
|                                   |                      (32.233 MB/s)|
+-----------------------------------------------------------------------+

Writing the forces breakdown file (forces_breakdown.dat).
+-------------------------------------------------------------------------------------------------------+
|  Inner_Iter|   Time(sec)|    rms[Rho]|   rms[RhoE]|          CL|          CD|     Avg CFL| relrms[Rho]|
+-------------------------------------------------------------------------------------------------------+
|         251|  1.3010e-01|   -9.677544|   -9.138798|    0.000093|    0.005042|  5.0000e+02|   -3.818931|
|         252|  1.3008e-01|   -9.678435|   -9.139716|    0.000094|    0.005035|  5.0000e+02|   -3.819822|
|         253|  1.3011e-01|   -9.679328|   -9.140634|    0.000095|    0.005028|  5.0000e+02|   -3.820715|
|         254|  1.3009e-01|   -9.680224|   -9.141552|    0.000097|    0.005022|  5.0000e+02|   -3.821611|
|         255|  1.3013e-01|   -9.681122|   -9.142470|    0.000098|    0.005015|  5.0000e+02|   -3.822509|
|         256|  1.3011e-01|   -9.682022|   -9.143387|    0.000099|    0.005009|  5.0000e+02|   -3.823409|
|         257|  1.3013e-01|   -9.682923|   -9.144305|    0.000100|    0.005002|  5.0000e+02|   -3.824310|
|         258|  1.3012e-01|   -9.683825|   -9.145221|    0.000101|    0.004996|  5.0000e+02|   -3.825212|
|         259|  1.3010e-01|   -9.684729|   -9.146137|    0.000102|    0.004990|  5.0000e+02|   -3.826116|
|         260|  1.3011e-01|   -9.685632|   -9.147050|    0.000103|    0.004983|  5.0000e+02|   -3.827019|
|         261|  1.3009e-01|   -9.686536|   -9.147963|    0.000104|    0.004977|  5.0000e+02|   -3.827923|
|         262|  1.3007e-01|   -9.687438|   -9.148873|    0.000105|    0.004971|  5.0000e+02|   -3.828825|
|         263|  1.3011e-01|   -9.688340|   -9.149780|    0.000107|    0.004965|  5.0000e+02|   -3.829727|
|         264|  1.3009e-01|   -9.689240|   -9.150685|    0.000108|    0.004959|  5.0000e+02|   -3.830627|
|         265|  1.3007e-01|   -9.690137|   -9.151586|    0.000109|    0.004953|  5.0000e+02|   -3.831524|
|         266|  1.3005e-01|   -9.691033|   -9.152484|    0.000110|    0.004947|  5.0000e+02|   -3.832420|
|         267|  1.3004e-01|   -9.691927|   -9.153379|    0.000111|    0.004941|  5.0000e+02|   -3.833314|
|         268|  1.3004e-01|   -9.692819|   -9.154272|    0.000112|    0.004935|  5.0000e+02|   -3.834206|
|         269|  1.3002e-01|   -9.693710|   -9.155163|    0.000113|    0.004929|  5.0000e+02|   -3.835097|
|         270|  1.3001e-01|   -9.694599|   -9.156052|    0.000115|    0.004923|  5.0000e+02|   -3.835986|
|         271|  1.2998e-01|   -9.695489|   -9.156940|    0.000116|    0.004917|  5.0000e+02|   -3.836876|
|         272|  1.2996e-01|   -9.696378|   -9.157827|    0.000117|    0.004912|  5.0000e+02|   -3.837765|
|         273|  1.3002e-01|   -9.697268|   -9.158714|    0.000118|    0.004906|  5.0000e+02|   -3.838655|
|         274|  1.3002e-01|   -9.698159|   -9.159603|    0.000119|    0.004900|  5.0000e+02|   -3.839546|
|         275|  1.3000e-01|   -9.699053|   -9.160493|    0.000120|    0.004895|  5.0000e+02|   -3.840439|
|         276|  1.2998e-01|   -9.699948|   -9.161385|    0.000122|    0.004889|  5.0000e+02|   -3.841335|
|         277|  1.2997e-01|   -9.700846|   -9.162280|    0.000123|    0.004884|  5.0000e+02|   -3.842233|
|         278|  1.2995e-01|   -9.701747|   -9.163177|    0.000124|    0.004878|  5.0000e+02|   -3.843133|
|         279|  1.2993e-01|   -9.702648|   -9.164076|    0.000125|    0.004873|  5.0000e+02|   -3.844035|
|         280|  1.2992e-01|   -9.703551|   -9.164977|    0.000126|    0.004867|  5.0000e+02|   -3.844938|
|         281|  1.2991e-01|   -9.704455|   -9.165878|    0.000127|    0.004862|  5.0000e+02|   -3.845842|
|         282|  1.2992e-01|   -9.705358|   -9.166780|    0.000129|    0.004857|  5.0000e+02|   -3.846745|
|         283|  1.2990e-01|   -9.706260|   -9.167680|    0.000130|    0.004851|  5.0000e+02|   -3.847647|
|         284|  1.2988e-01|   -9.707160|   -9.168578|    0.000131|    0.004846|  5.0000e+02|   -3.848546|
|         285|  1.2987e-01|   -9.708056|   -9.169474|    0.000132|    0.004841|  5.0000e+02|   -3.849443|
|         286|  1.2986e-01|   -9.708949|   -9.170366|    0.000133|    0.004835|  5.0000e+02|   -3.850336|
|         287|  1.2992e-01|   -9.709839|   -9.171254|    0.000134|    0.004830|  5.0000e+02|   -3.851226|
|         288|  1.2990e-01|   -9.710725|   -9.172137|    0.000136|    0.004825|  5.0000e+02|   -3.852112|
|         289|  1.2989e-01|   -9.711606|   -9.173016|    0.000137|    0.004819|  5.0000e+02|   -3.852993|
|         290|  1.2990e-01|   -9.712484|   -9.173890|    0.000138|    0.004814|  5.0000e+02|   -3.853871|
|         291|  1.2989e-01|   -9.713357|   -9.174759|    0.000139|    0.004809|  5.0000e+02|   -3.854744|
|         292|  1.2989e-01|   -9.714226|   -9.175624|    0.000140|    0.004804|  5.0000e+02|   -3.855613|
|         293|  1.2987e-01|   -9.715091|   -9.176483|    0.000142|    0.004799|  5.0000e+02|   -3.856478|
|         294|  1.2985e-01|   -9.715952|   -9.177337|    0.000143|    0.004794|  5.0000e+02|   -3.857339|
|         295|  1.2987e-01|   -9.716809|   -9.178186|    0.000144|    0.004789|  5.0000e+02|   -3.858195|
|         296|  1.2985e-01|   -9.717660|   -9.179030|    0.000145|    0.004784|  5.0000e+02|   -3.859047|
|         297|  1.2986e-01|   -9.718506|   -9.179867|    0.000146|    0.004778|  5.0000e+02|   -3.859893|
|         298|  1.2985e-01|   -9.719347|   -9.180698|    0.000148|    0.004773|  5.0000e+02|   -3.860734|
|         299|  1.2986e-01|   -9.720181|   -9.181523|    0.000149|    0.004768|  5.0000e+02|   -3.861568|
|         300|  1.2989e-01|   -9.721008|   -9.182340|    0.000150|    0.004763|  5.0000e+02|   -3.862395|
|         301|  1.2989e-01|   -9.721827|   -9.183149|    0.000151|    0.004758|  5.0000e+02|   -3.863214|
|         302|  1.2989e-01|   -9.722639|   -9.183949|    0.000152|    0.004753|  5.0000e+02|   -3.864026|
|         303|  1.2987e-01|   -9.723441|   -9.184740|    0.000153|    0.004748|  5.0000e+02|   -3.864828|
|         304|  1.2987e-01|   -9.724234|   -9.185521|    0.000155|    0.004743|  5.0000e+02|   -3.865621|
|         305|  1.2985e-01|   -9.725017|   -9.186293|    0.000156|    0.004739|  5.0000e+02|   -3.866404|
|         306|  1.2987e-01|   -9.725790|   -9.187054|    0.000157|    0.004734|  5.0000e+02|   -3.867176|
|         307|  1.2987e-01|   -9.726552|   -9.187804|    0.000158|    0.004729|  5.0000e+02|   -3.867939|
|         308|  1.2988e-01|   -9.727304|   -9.188544|    0.000159|    0.004724|  5.0000e+02|   -3.868690|
|         309|  1.2986e-01|   -9.728044|   -9.189273|    0.000161|    0.004719|  5.0000e+02|   -3.869431|
|         310|  1.2984e-01|   -9.728775|   -9.189991|    0.000162|    0.004714|  5.0000e+02|   -3.870162|
|         311|  1.2983e-01|   -9.729494|   -9.190699|    0.000163|    0.004709|  5.0000e+02|   -3.870881|
|         312|  1.2982e-01|   -9.730203|   -9.191396|    0.000164|    0.004704|  5.0000e+02|   -3.871589|
|         313|  1.2980e-01|   -9.730900|   -9.192082|    0.000165|    0.004699|  5.0000e+02|   -3.872287|
|         314|  1.2979e-01|   -9.731588|   -9.192757|    0.000166|    0.004695|  5.0000e+02|   -3.872975|
|         315|  1.2977e-01|   -9.732264|   -9.193422|    0.000168|    0.004690|  5.0000e+02|   -3.873651|
|         316|  1.2977e-01|   -9.732930|   -9.194076|    0.000169|    0.004685|  5.0000e+02|   -3.874317|
|         317|  1.2976e-01|   -9.733584|   -9.194719|    0.000170|    0.004680|  5.0000e+02|   -3.874971|
|         318|  1.2975e-01|   -9.734228|   -9.195351|    0.000171|    0.004675|  5.0000e+02|   -3.875615|
|         319|  1.2973e-01|   -9.734860|   -9.195972|    0.000172|    0.004670|  5.0000e+02|   -3.876247|
|         320|  1.2973e-01|   -9.735480|   -9.196581|    0.000173|    0.004666|  5.0000e+02|   -3.876867|
|         321|  1.2971e-01|   -9.736088|   -9.197178|    0.000175|    0.004661|  5.0000e+02|   -3.877474|
|         322|  1.2972e-01|   -9.736683|   -9.197763|    0.000176|    0.004656|  5.0000e+02|   -3.878069|
|         323|  1.2972e-01|   -9.737264|   -9.198335|    0.000177|    0.004651|  5.0000e+02|   -3.878651|
|         324|  1.2971e-01|   -9.737832|   -9.198895|    0.000178|    0.004647|  5.0000e+02|   -3.879219|
|         325|  1.2970e-01|   -9.738385|   -9.199441|    0.000179|    0.004642|  5.0000e+02|   -3.879772|
|         326|  1.2969e-01|   -9.738924|   -9.199973|    0.000181|    0.004637|  5.0000e+02|   -3.880311|
|         327|  1.2968e-01|   -9.739448|   -9.200492|    0.000182|    0.004632|  5.0000e+02|   -3.880835|
|         328|  1.2967e-01|   -9.739958|   -9.200997|    0.000183|    0.004628|  5.0000e+02|   -3.881344|
|         329|  1.2968e-01|   -9.740452|   -9.201488|    0.000184|    0.004623|  5.0000e+02|   -3.881839|
|         330|  1.2966e-01|   -9.740932|   -9.201965|    0.000185|    0.004618|  5.0000e+02|   -3.882319|
|         331|  1.2970e-01|   -9.741398|   -9.202429|    0.000186|    0.004614|  5.0000e+02|   -3.882785|
|         332|  1.2969e-01|   -9.741851|   -9.202878|    0.000188|    0.004609|  5.0000e+02|   -3.883238|
|         333|  1.2969e-01|   -9.742290|   -9.203315|    0.000189|    0.004604|  5.0000e+02|   -3.883677|
|         334|  1.2969e-01|   -9.742717|   -9.203738|    0.000190|    0.004600|  5.0000e+02|   -3.884104|
|         335|  1.2969e-01|   -9.743131|   -9.204148|    0.000191|    0.004595|  5.0000e+02|   -3.884518|
|         336|  1.2968e-01|   -9.743534|   -9.204546|    0.000192|    0.004590|  5.0000e+02|   -3.884920|
|         337|  1.2967e-01|   -9.743924|   -9.204932|    0.000193|    0.004586|  5.0000e+02|   -3.885311|
|         338|  1.2969e-01|   -9.744303|   -9.205305|    0.000195|    0.004581|  5.0000e+02|   -3.885690|
|         339|  1.2967e-01|   -9.744670|   -9.205667|    0.000196|    0.004576|  5.0000e+02|   -3.886057|
|         340|  1.2973e-01|   -9.745025|   -9.206016|    0.000197|    0.004572|  5.0000e+02|   -3.886412|
|         341|  1.2976e-01|   -9.745368|   -9.206354|    0.000198|    0.004567|  5.0000e+02|   -3.886755|
|         342|  1.2974e-01|   -9.745699|   -9.206679|    0.000199|    0.004562|  5.0000e+02|   -3.887086|
|         343|  1.2973e-01|   -9.746017|   -9.206992|    0.000200|    0.004558|  5.0000e+02|   -3.887404|
|         344|  1.2972e-01|   -9.746323|   -9.207293|    0.000202|    0.004553|  5.0000e+02|   -3.887710|
|         345|  1.2974e-01|   -9.746615|   -9.207580|    0.000203|    0.004549|  5.0000e+02|   -3.888002|
|         346|  1.2974e-01|   -9.746895|   -9.207855|    0.000204|    0.004544|  5.0000e+02|   -3.888281|
|         347|  1.2975e-01|   -9.747160|   -9.208117|    0.000205|    0.004539|  5.0000e+02|   -3.888547|
|         348|  1.2974e-01|   -9.747413|   -9.208366|    0.000206|    0.004535|  5.0000e+02|   -3.888800|
|         349|  1.2973e-01|   -9.747652|   -9.208602|    0.000207|    0.004530|  5.0000e+02|   -3.889039|
|         350|  1.2974e-01|   -9.747878|   -9.208825|    0.000209|    0.004526|  5.0000e+02|   -3.889265|
|         351|  1.2974e-01|   -9.748091|   -9.209036|    0.000210|    0.004521|  5.0000e+02|   -3.889477|
|         352|  1.2973e-01|   -9.748290|   -9.209234|    0.000211|    0.004517|  5.0000e+02|   -3.889677|
|         353|  1.2976e-01|   -9.748477|   -9.209419|    0.000212|    0.004512|  5.0000e+02|   -3.889864|
|         354|  1.2975e-01|   -9.748651|   -9.209593|    0.000213|    0.004508|  5.0000e+02|   -3.890038|
|         355|  1.2973e-01|   -9.748813|   -9.209754|    0.000215|    0.004503|  5.0000e+02|   -3.890200|
|         356|  1.2972e-01|   -9.748963|   -9.209904|    0.000216|    0.004499|  5.0000e+02|   -3.890350|
|         357|  1.2971e-01|   -9.749101|   -9.210042|    0.000217|    0.004494|  5.0000e+02|   -3.890488|
|         358|  1.2971e-01|   -9.749227|   -9.210169|    0.000218|    0.004489|  5.0000e+02|   -3.890613|
|         359|  1.2970e-01|   -9.749340|   -9.210284|    0.000219|    0.004485|  5.0000e+02|   -3.890727|
|         360|  1.2969e-01|   -9.749442|   -9.210388|    0.000220|    0.004480|  5.0000e+02|   -3.890829|
|         361|  1.2969e-01|   -9.749532|   -9.210480|    0.000222|    0.004476|  5.0000e+02|   -3.890919|
|         362|  1.2967e-01|   -9.749609|   -9.210561|    0.000223|    0.004471|  5.0000e+02|   -3.890996|
|         363|  1.2966e-01|   -9.749674|   -9.210630|    0.000224|    0.004467|  5.0000e+02|   -3.891061|
|         364|  1.2964e-01|   -9.749727|   -9.210687|    0.000225|    0.004463|  5.0000e+02|   -3.891114|
|         365|  1.2963e-01|   -9.749768|   -9.210733|    0.000226|    0.004458|  5.0000e+02|   -3.891154|
|         366|  1.2963e-01|   -9.749795|   -9.210767|    0.000227|    0.004454|  5.0000e+02|   -3.891182|
|         367|  1.2962e-01|   -9.749811|   -9.210790|    0.000229|    0.004449|  5.0000e+02|   -3.891198|
|         368|  1.2961e-01|   -9.749815|   -9.210801|    0.000230|    0.004445|  5.0000e+02|   -3.891201|
|         369|  1.2960e-01|   -9.749806|   -9.210801|    0.000231|    0.004440|  5.0000e+02|   -3.891193|
|         370|  1.2959e-01|   -9.749786|   -9.210791|    0.000232|    0.004436|  5.0000e+02|   -3.891173|
|         371|  1.2965e-01|   -9.749755|   -9.210771|    0.000233|    0.004431|  5.0000e+02|   -3.891142|
|         372|  1.2963e-01|   -9.749713|   -9.210740|    0.000234|    0.004427|  5.0000e+02|   -3.891100|
|         373|  1.2962e-01|   -9.749661|   -9.210700|    0.000236|    0.004422|  5.0000e+02|   -3.891048|
|         374|  1.2962e-01|   -9.749599|   -9.210651|    0.000237|    0.004418|  5.0000e+02|   -3.890985|
|         375|  1.2962e-01|   -9.749526|   -9.210592|    0.000238|    0.004414|  5.0000e+02|   -3.890913|
|         376|  1.2960e-01|   -9.749443|   -9.210523|    0.000239|    0.004409|  5.0000e+02|   -3.890830|
|         377|  1.2959e-01|   -9.749350|   -9.210446|    0.000240|    0.004405|  5.0000e+02|   -3.890737|
|         378|  1.2958e-01|   -9.749247|   -9.210359|    0.000241|    0.004400|  5.0000e+02|   -3.890633|
|         379|  1.2957e-01|   -9.749133|   -9.210263|    0.000243|    0.004396|  5.0000e+02|   -3.890520|
|         380|  1.2956e-01|   -9.749010|   -9.210157|    0.000244|    0.004392|  5.0000e+02|   -3.890397|
|         381|  1.2956e-01|   -9.748877|   -9.210043|    0.000245|    0.004387|  5.0000e+02|   -3.890264|
|         382|  1.2955e-01|   -9.748734|   -9.209919|    0.000246|    0.004383|  5.0000e+02|   -3.890121|
|         383|  1.2954e-01|   -9.748582|   -9.209786|    0.000247|    0.004379|  5.0000e+02|   -3.889969|
|         384|  1.2953e-01|   -9.748421|   -9.209645|    0.000248|    0.004374|  5.0000e+02|   -3.889808|
|         385|  1.2952e-01|   -9.748250|   -9.209494|    0.000250|    0.004370|  5.0000e+02|   -3.889637|
|         386|  1.2950e-01|   -9.748071|   -9.209335|    0.000251|    0.004366|  5.0000e+02|   -3.889457|
|         387|  1.2950e-01|   -9.747882|   -9.209168|    0.000252|    0.004361|  5.0000e+02|   -3.889269|
|         388|  1.2949e-01|   -9.747685|   -9.208992|    0.000253|    0.004357|  5.0000e+02|   -3.889072|
|         389|  1.2948e-01|   -9.747479|   -9.208808|    0.000254|    0.004353|  5.0000e+02|   -3.888866|
|         390|  1.2948e-01|   -9.747264|   -9.208615|    0.000255|    0.004348|  5.0000e+02|   -3.888651|
|         391|  1.2947e-01|   -9.747039|   -9.208414|    0.000256|    0.004344|  5.0000e+02|   -3.888426|
|         392|  1.2946e-01|   -9.746804|   -9.208204|    0.000258|    0.004340|  5.0000e+02|   -3.888191|
|         393|  1.2945e-01|   -9.746559|   -9.207986|    0.000259|    0.004335|  5.0000e+02|   -3.887946|
|         394|  1.2944e-01|   -9.746304|   -9.207759|    0.000260|    0.004331|  5.0000e+02|   -3.887691|
|         395|  1.2943e-01|   -9.746040|   -9.207525|    0.000261|    0.004327|  5.0000e+02|   -3.887427|
|         396|  1.2943e-01|   -9.745768|   -9.207283|    0.000262|    0.004323|  5.0000e+02|   -3.887155|
|         397|  1.2942e-01|   -9.745488|   -9.207034|    0.000263|    0.004318|  5.0000e+02|   -3.886875|
|         398|  1.2943e-01|   -9.745200|   -9.206779|    0.000265|    0.004314|  5.0000e+02|   -3.886587|
|         399|  1.2941e-01|   -9.744906|   -9.206518|    0.000266|    0.004310|  5.0000e+02|   -3.886293|
|         400|  1.2941e-01|   -9.744604|   -9.206250|    0.000267|    0.004306|  5.0000e+02|   -3.885991|
|         401|  1.2941e-01|   -9.744295|   -9.205975|    0.000268|    0.004301|  5.0000e+02|   -3.885682|
|         402|  1.2940e-01|   -9.743978|   -9.205693|    0.000269|    0.004297|  5.0000e+02|   -3.885365|
|         403|  1.2939e-01|   -9.743653|   -9.205404|    0.000270|    0.004293|  5.0000e+02|   -3.885040|
|         404|  1.2938e-01|   -9.743320|   -9.205108|    0.000272|    0.004289|  5.0000e+02|   -3.884707|
|         405|  1.2937e-01|   -9.742978|   -9.204803|    0.000273|    0.004284|  5.0000e+02|   -3.884365|
|         406|  1.2936e-01|   -9.742628|   -9.204491|    0.000274|    0.004280|  5.0000e+02|   -3.884015|
|         407|  1.2936e-01|   -9.742269|   -9.204171|    0.000275|    0.004276|  5.0000e+02|   -3.883656|
|         408|  1.2936e-01|   -9.741903|   -9.203844|    0.000276|    0.004272|  5.0000e+02|   -3.883290|
|         409|  1.2934e-01|   -9.741528|   -9.203509|    0.000277|    0.004268|  5.0000e+02|   -3.882915|
|         410|  1.2933e-01|   -9.741146|   -9.203168|    0.000278|    0.004263|  5.0000e+02|   -3.882533|
|         411|  1.2933e-01|   -9.740756|   -9.202819|    0.000280|    0.004259|  5.0000e+02|   -3.882143|
|         412|  1.2932e-01|   -9.740359|   -9.202465|    0.000281|    0.004255|  5.0000e+02|   -3.881746|
|         413|  1.2930e-01|   -9.739955|   -9.202104|    0.000282|    0.004251|  5.0000e+02|   -3.881342|
|         414|  1.2929e-01|   -9.739545|   -9.201736|    0.000283|    0.004247|  5.0000e+02|   -3.880932|
|         415|  1.2929e-01|   -9.739127|   -9.201363|    0.000284|    0.004243|  5.0000e+02|   -3.880514|
|         416|  1.2928e-01|   -9.738702|   -9.200983|    0.000285|    0.004239|  5.0000e+02|   -3.880089|
|         417|  1.2926e-01|   -9.738271|   -9.200597|    0.000286|    0.004234|  5.0000e+02|   -3.879658|
|         418|  1.2925e-01|   -9.737832|   -9.200205|    0.000287|    0.004230|  5.0000e+02|   -3.879219|
|         419|  1.2925e-01|   -9.737387|   -9.199806|    0.000289|    0.004226|  5.0000e+02|   -3.878774|
|         420|  1.2923e-01|   -9.736934|   -9.199400|    0.000290|    0.004222|  5.0000e+02|   -3.878321|
|         421|  1.2922e-01|   -9.736474|   -9.198988|    0.000291|    0.004218|  5.0000e+02|   -3.877861|
|         422|  1.2921e-01|   -9.736007|   -9.198569|    0.000292|    0.004214|  5.0000e+02|   -3.877394|
|         423|  1.2920e-01|   -9.735532|   -9.198143|    0.000293|    0.004210|  5.0000e+02|   -3.876919|
|         424|  1.2919e-01|   -9.735050|   -9.197711|    0.000294|    0.004206|  5.0000e+02|   -3.876437|
|         425|  1.2918e-01|   -9.734561|   -9.197271|    0.000295|    0.004202|  5.0000e+02|   -3.875948|
|         426|  1.2917e-01|   -9.734065|   -9.196824|    0.000296|    0.004198|  5.0000e+02|   -3.875451|
|         427|  1.2916e-01|   -9.733561|   -9.196371|    0.000297|    0.004194|  5.0000e+02|   -3.874948|
|         428|  1.2915e-01|   -9.733050|   -9.195910|    0.000298|    0.004190|  5.0000e+02|   -3.874437|
|         429|  1.2914e-01|   -9.732531|   -9.195442|    0.000299|    0.004186|  5.0000e+02|   -3.873918|
|         430|  1.2913e-01|   -9.732005|   -9.194967|    0.000300|    0.004182|  5.0000e+02|   -3.873392|
|         431|  1.2912e-01|   -9.731471|   -9.194484|    0.000301|    0.004178|  5.0000e+02|   -3.872858|
|         432|  1.2911e-01|   -9.730930|   -9.193994|    0.000303|    0.004174|  5.0000e+02|   -3.872317|
|         433|  1.2910e-01|   -9.730381|   -9.193496|    0.000304|    0.004170|  5.0000e+02|   -3.871767|
|         434|  1.2909e-01|   -9.729824|   -9.192990|    0.000305|    0.004166|  5.0000e+02|   -3.871211|
|         435|  1.2908e-01|   -9.729259|   -9.192477|    0.000306|    0.004162|  5.0000e+02|   -3.870646|
|         436|  1.2908e-01|   -9.728687|   -9.191957|    0.000307|    0.004158|  5.0000e+02|   -3.870074|
|         437|  1.2907e-01|   -9.728108|   -9.191429|    0.000308|    0.004154|  5.0000e+02|   -3.869495|
|         438|  1.2905e-01|   -9.727521|   -9.190893|    0.000309|    0.004150|  5.0000e+02|   -3.868908|
|         439|  1.2904e-01|   -9.726927|   -9.190350|    0.000310|    0.004146|  5.0000e+02|   -3.868314|
|         440|  1.2905e-01|   -9.726325|   -9.189800|    0.000311|    0.004142|  5.0000e+02|   -3.867712|
|         441|  1.2905e-01|   -9.725716|   -9.189243|    0.000312|    0.004138|  5.0000e+02|   -3.867103|
|         442|  1.2904e-01|   -9.725100|   -9.188678|    0.000313|    0.004134|  5.0000e+02|   -3.866487|
|         443|  1.2903e-01|   -9.724476|   -9.188105|    0.000314|    0.004130|  5.0000e+02|   -3.865863|
|         444|  1.2902e-01|   -9.723845|   -9.187525|    0.000315|    0.004126|  5.0000e+02|   -3.865231|
|         445|  1.2901e-01|   -9.723205|   -9.186937|    0.000316|    0.004122|  5.0000e+02|   -3.864592|
|         446|  1.2900e-01|   -9.722558|   -9.186341|    0.000317|    0.004118|  5.0000e+02|   -3.863945|
|         447|  1.2899e-01|   -9.721903|   -9.185737|    0.000318|    0.004115|  5.0000e+02|   -3.863290|
|         448|  1.2898e-01|   -9.721239|   -9.185125|    0.000318|    0.004111|  5.0000e+02|   -3.862626|
|         449|  1.2898e-01|   -9.720568|   -9.184505|    0.000319|    0.004107|  5.0000e+02|   -3.861955|
|         450|  1.2897e-01|   -9.719888|   -9.183876|    0.000320|    0.004103|  5.0000e+02|   -3.861275|
|         451|  1.2896e-01|   -9.719200|   -9.183240|    0.000321|    0.004099|  5.0000e+02|   -3.860587|
|         452|  1.2895e-01|   -9.718503|   -9.182594|    0.000322|    0.004095|  5.0000e+02|   -3.859890|
|         453|  1.2894e-01|   -9.717799|   -9.181941|    0.000323|    0.004091|  5.0000e+02|   -3.859186|
|         454|  1.2894e-01|   -9.717086|   -9.181279|    0.000324|    0.004088|  5.0000e+02|   -3.858473|
|         455|  1.2893e-01|   -9.716365|   -9.180609|    0.000325|    0.004084|  5.0000e+02|   -3.857752|
|         456|  1.2892e-01|   -9.715636|   -9.179931|    0.000326|    0.004080|  5.0000e+02|   -3.857023|
|         457|  1.2891e-01|   -9.714898|   -9.179244|    0.000326|    0.004076|  5.0000e+02|   -3.856285|
|         458|  1.2890e-01|   -9.714152|   -9.178548|    0.000327|    0.004072|  5.0000e+02|   -3.855539|
|         459|  1.2889e-01|   -9.713398|   -9.177845|    0.000328|    0.004069|  5.0000e+02|   -3.854785|
|         460|  1.2888e-01|   -9.712635|   -9.177132|    0.000329|    0.004065|  5.0000e+02|   -3.854022|
|         461|  1.2888e-01|   -9.711864|   -9.176412|    0.000330|    0.004061|  5.0000e+02|   -3.853251|
|         462|  1.2887e-01|   -9.711084|   -9.175682|    0.000330|    0.004057|  5.0000e+02|   -3.852471|
|         463|  1.2886e-01|   -9.710295|   -9.174944|    0.000331|    0.004054|  5.0000e+02|   -3.851682|
|         464|  1.2886e-01|   -9.709498|   -9.174197|    0.000332|    0.004050|  5.0000e+02|   -3.850885|
|         465|  1.2886e-01|   -9.708692|   -9.173440|    0.000333|    0.004046|  5.0000e+02|   -3.850079|
|         466|  1.2888e-01|   -9.707876|   -9.172675|    0.000333|    0.004042|  5.0000e+02|   -3.849263|
|         467|  1.2888e-01|   -9.707052|   -9.171901|    0.000334|    0.004039|  5.0000e+02|   -3.848439|
|         468|  1.2887e-01|   -9.706218|   -9.171117|    0.000335|    0.004035|  5.0000e+02|   -3.847605|
|         469|  1.2888e-01|   -9.705376|   -9.170324|    0.000336|    0.004031|  5.0000e+02|   -3.846762|
|         470|  1.2888e-01|   -9.704523|   -9.169521|    0.000336|    0.004028|  5.0000e+02|   -3.845910|
|         471|  1.2887e-01|   -9.703662|   -9.168709|    0.000337|    0.004024|  5.0000e+02|   -3.845048|
|         472|  1.2887e-01|   -9.702790|   -9.167887|    0.000338|    0.004020|  5.0000e+02|   -3.844177|
|         473|  1.2888e-01|   -9.701909|   -9.167056|    0.000338|    0.004017|  5.0000e+02|   -3.843296|
|         474|  1.2887e-01|   -9.701019|   -9.166215|    0.000339|    0.004013|  5.0000e+02|   -3.842406|
|         475|  1.2886e-01|   -9.700119|   -9.165365|    0.000339|    0.004009|  5.0000e+02|   -3.841506|
|         476|  1.2885e-01|   -9.699209|   -9.164504|    0.000340|    0.004006|  5.0000e+02|   -3.840596|
|         477|  1.2886e-01|   -9.698290|   -9.163635|    0.000340|    0.004002|  5.0000e+02|   -3.839677|
|         478|  1.2886e-01|   -9.697362|   -9.162755|    0.000341|    0.003998|  5.0000e+02|   -3.838748|
|         479|  1.2885e-01|   -9.696423|   -9.161866|    0.000341|    0.003995|  5.0000e+02|   -3.837810|
|         480|  1.2885e-01|   -9.695476|   -9.160968|    0.000342|    0.003991|  5.0000e+02|   -3.836862|
|         481|  1.2884e-01|   -9.694518|   -9.160060|    0.000342|    0.003988|  5.0000e+02|   -3.835905|
|         482|  1.2883e-01|   -9.693552|   -9.159142|    0.000343|    0.003984|  5.0000e+02|   -3.834939|
|         483|  1.2882e-01|   -9.692576|   -9.158215|    0.000343|    0.003980|  5.0000e+02|   -3.833963|
|         484|  1.2881e-01|   -9.691591|   -9.157280|    0.000344|    0.003977|  5.0000e+02|   -3.832978|
|         485|  1.2880e-01|   -9.690598|   -9.156335|    0.000344|    0.003973|  5.0000e+02|   -3.831985|
|         486|  1.2880e-01|   -9.689596|   -9.155382|    0.000344|    0.003970|  5.0000e+02|   -3.830982|
|         487|  1.2879e-01|   -9.688585|   -9.154419|    0.000345|    0.003966|  5.0000e+02|   -3.829971|
|         488|  1.2880e-01|   -9.687565|   -9.153449|    0.000345|    0.003963|  5.0000e+02|   -3.828952|
|         489|  1.2879e-01|   -9.686538|   -9.152470|    0.000345|    0.003959|  5.0000e+02|   -3.827925|
|         490|  1.2880e-01|   -9.685504|   -9.151484|    0.000345|    0.003956|  5.0000e+02|   -3.826891|
|         491|  1.2880e-01|   -9.684462|   -9.150491|    0.000346|    0.003952|  5.0000e+02|   -3.825849|
|         492|  1.2879e-01|   -9.683415|   -9.149491|    0.000346|    0.003949|  5.0000e+02|   -3.824801|
|         493|  1.2878e-01|   -9.682361|   -9.148485|    0.000346|    0.003945|  5.0000e+02|   -3.823748|
|         494|  1.2877e-01|   -9.681302|   -9.147474|    0.000346|    0.003942|  5.0000e+02|   -3.822689|
|         495|  1.2877e-01|   -9.680239|   -9.146458|    0.000346|    0.003938|  5.0000e+02|   -3.821625|
|         496|  1.2876e-01|   -9.679171|   -9.145439|    0.000346|    0.003935|  5.0000e+02|   -3.820558|
|         497|  1.2875e-01|   -9.678101|   -9.144415|    0.000346|    0.003931|  5.0000e+02|   -3.819488|
|         498|  1.2874e-01|   -9.677029|   -9.143390|    0.000346|    0.003928|  5.0000e+02|   -3.818416|
|         499|  1.2874e-01|   -9.675956|   -9.142363|    0.000346|    0.003924|  5.0000e+02|   -3.817343|
|         500|  1.2881e-01|   -9.674883|   -9.141335|    0.000346|    0.003921|  5.0000e+02|   -3.816270|
+-----------------------------------------------------------------------+
|        File Writing Summary       |              Filename             |
+-----------------------------------------------------------------------+
|SU2 restart                        |restart.dat                        |
|                                   |                     (821.706 MB/s)|
|Paraview                           |vol_solution.vtu                   |
|                                   |                     (704.915 MB/s)|
|Paraview surface                   |surface.vtu                        |
|                                   |                     (31.0086 MB/s)|
+-----------------------------------------------------------------------+

Writing the forces breakdown file (forces_breakdown.dat).
+-------------------------------------------------------------------------------------------------------+
|  Inner_Iter|   Time(sec)|    rms[Rho]|   rms[RhoE]|          CL|          CD|     Avg CFL| relrms[Rho]|
+-------------------------------------------------------------------------------------------------------+
|         501|  1.2911e-01|   -9.673810|   -9.140308|    0.000346|    0.003917|  5.0000e+02|   -3.815197|
|         502|  1.2917e-01|   -9.672740|   -9.139282|    0.000346|    0.003914|  5.0000e+02|   -3.814127|
|         503|  1.2920e-01|   -9.671672|   -9.138259|    0.000346|    0.003911|  5.0000e+02|   -3.813059|
|         504|  1.2923e-01|   -9.670609|   -9.137240|    0.000346|    0.003907|  5.0000e+02|   -3.811996|
|         505|  1.2925e-01|   -9.669552|   -9.136225|    0.000345|    0.003904|  5.0000e+02|   -3.810938|
|         506|  1.2924e-01|   -9.668500|   -9.135216|    0.000345|    0.003900|  5.0000e+02|   -3.809887|
|         507|  1.2923e-01|   -9.667457|   -9.134215|    0.000345|    0.003897|  5.0000e+02|   -3.808844|
|         508|  1.2922e-01|   -9.666423|   -9.133221|    0.000344|    0.003894|  5.0000e+02|   -3.807810|
|         509|  1.2921e-01|   -9.665399|   -9.132238|    0.000344|    0.003890|  5.0000e+02|   -3.806786|
|         510|  1.2921e-01|   -9.664387|   -9.131265|    0.000344|    0.003887|  5.0000e+02|   -3.805774|
|         511|  1.2920e-01|   -9.663389|   -9.130305|    0.000343|    0.003884|  5.0000e+02|   -3.804776|
|         512|  1.2919e-01|   -9.662406|   -9.129359|    0.000343|    0.003880|  5.0000e+02|   -3.803792|
|         513|  1.2918e-01|   -9.661439|   -9.128428|    0.000342|    0.003877|  5.0000e+02|   -3.802825|
|         514|  1.2917e-01|   -9.660489|   -9.127514|    0.000341|    0.003874|  5.0000e+02|   -3.801876|
|         515|  1.2917e-01|   -9.659559|   -9.126618|    0.000341|    0.003870|  5.0000e+02|   -3.800946|
|         516|  1.2916e-01|   -9.658649|   -9.125742|    0.000340|    0.003867|  5.0000e+02|   -3.800036|
|         517|  1.2917e-01|   -9.657761|   -9.124886|    0.000339|    0.003864|  5.0000e+02|   -3.799148|
|         518|  1.2919e-01|   -9.656896|   -9.124052|    0.000339|    0.003861|  5.0000e+02|   -3.798283|
|         519|  1.2922e-01|   -9.656056|   -9.123241|    0.000338|    0.003857|  5.0000e+02|   -3.797443|
|         520|  1.2923e-01|   -9.655241|   -9.122455|    0.000337|    0.003854|  5.0000e+02|   -3.796628|
|         521|  1.2922e-01|   -9.654453|   -9.121694|    0.000336|    0.003851|  5.0000e+02|   -3.795840|
|         522|  1.2922e-01|   -9.653693|   -9.120960|    0.000335|    0.003847|  5.0000e+02|   -3.795080|
|         523|  1.2921e-01|   -9.652962|   -9.120253|    0.000334|    0.003844|  5.0000e+02|   -3.794349|
|         524|  1.2920e-01|   -9.652260|   -9.119574|    0.000333|    0.003841|  5.0000e+02|   -3.793647|
|         525|  1.2921e-01|   -9.651589|   -9.118925|    0.000332|    0.003838|  5.0000e+02|   -3.792976|
|         526|  1.2920e-01|   -9.650949|   -9.118305|    0.000331|    0.003835|  5.0000e+02|   -3.792335|
|         527|  1.2919e-01|   -9.650340|   -9.117716|    0.000330|    0.003831|  5.0000e+02|   -3.791727|
|         528|  1.2919e-01|   -9.649764|   -9.117157|    0.000329|    0.003828|  5.0000e+02|   -3.791150|
|         529|  1.2930e-01|   -9.649220|   -9.116630|    0.000328|    0.003825|  5.0000e+02|   -3.790607|
|         530|  1.2936e-01|   -9.648710|   -9.116136|    0.000327|    0.003822|  5.0000e+02|   -3.790097|
|         531|  1.2939e-01|   -9.648234|   -9.115674|    0.000325|    0.003819|  5.0000e+02|   -3.789621|
|         532|  1.2943e-01|   -9.647793|   -9.115245|    0.000324|    0.003815|  5.0000e+02|   -3.789180|
|         533|  1.2943e-01|   -9.647386|   -9.114849|    0.000323|    0.003812|  5.0000e+02|   -3.788773|
|         534|  1.2943e-01|   -9.647014|   -9.114488|    0.000321|    0.003809|  5.0000e+02|   -3.788401|
|         535|  1.2942e-01|   -9.646678|   -9.114160|    0.000320|    0.003806|  5.0000e+02|   -3.788065|
|         536|  1.2941e-01|   -9.646377|   -9.113867|    0.000318|    0.003803|  5.0000e+02|   -3.787764|
|         537|  1.2941e-01|   -9.646112|   -9.113608|    0.000317|    0.003800|  5.0000e+02|   -3.787499|
|         538|  1.2946e-01|   -9.645882|   -9.113384|    0.000316|    0.003797|  5.0000e+02|   -3.787269|
|         539|  1.2951e-01|   -9.645689|   -9.113194|    0.000314|    0.003794|  5.0000e+02|   -3.787075|
|         540|  1.2956e-01|   -9.645531|   -9.113039|    0.000312|    0.003790|  5.0000e+02|   -3.786918|
|         541|  1.2957e-01|   -9.645409|   -9.112919|    0.000311|    0.003787|  5.0000e+02|   -3.786796|
|         542|  1.2956e-01|   -9.645322|   -9.112833|    0.000309|    0.003784|  5.0000e+02|   -3.786709|
|         543|  1.2956e-01|   -9.645271|   -9.112782|    0.000308|    0.003781|  5.0000e+02|   -3.786658|
|         544|  1.2956e-01|   -9.645255|   -9.112765|    0.000306|    0.003778|  5.0000e+02|   -3.786642|
|         545|  1.2956e-01|   -9.645274|   -9.112781|    0.000304|    0.003775|  5.0000e+02|   -3.786661|
|         546|  1.2955e-01|   -9.645327|   -9.112831|    0.000302|    0.003772|  5.0000e+02|   -3.786714|
|         547|  1.2954e-01|   -9.645415|   -9.112914|    0.000301|    0.003769|  5.0000e+02|   -3.786802|
|         548|  1.2953e-01|   -9.645536|   -9.113031|    0.000299|    0.003766|  5.0000e+02|   -3.786923|
|         549|  1.2953e-01|   -9.645691|   -9.113180|    0.000297|    0.003763|  5.0000e+02|   -3.787078|
|         550|  1.2952e-01|   -9.645879|   -9.113361|    0.000295|    0.003760|  5.0000e+02|   -3.787266|
|         551|  1.2951e-01|   -9.646100|   -9.113574|    0.000293|    0.003757|  5.0000e+02|   -3.787487|
|         552|  1.2950e-01|   -9.646353|   -9.113819|    0.000291|    0.003754|  5.0000e+02|   -3.787740|
|         553|  1.2950e-01|   -9.646639|   -9.114096|    0.000289|    0.003751|  5.0000e+02|   -3.788026|
|         554|  1.2949e-01|   -9.646957|   -9.114403|    0.000287|    0.003748|  5.0000e+02|   -3.788344|
|         555|  1.2948e-01|   -9.647307|   -9.114742|    0.000285|    0.003745|  5.0000e+02|   -3.788693|
|         556|  1.2947e-01|   -9.647687|   -9.115111|    0.000283|    0.003742|  5.0000e+02|   -3.789074|
|         557|  1.2946e-01|   -9.648099|   -9.115511|    0.000281|    0.003739|  5.0000e+02|   -3.789486|
|         558|  1.2950e-01|   -9.648542|   -9.115941|    0.000279|    0.003736|  5.0000e+02|   -3.789928|
|         559|  1.2954e-01|   -9.649014|   -9.116400|    0.000277|    0.003733|  5.0000e+02|   -3.790401|
|         560|  1.2955e-01|   -9.649517|   -9.116889|    0.000275|    0.003730|  5.0000e+02|   -3.790904|
|         561|  1.2958e-01|   -9.650049|   -9.117406|    0.000273|    0.003727|  5.0000e+02|   -3.791436|
|         562|  1.2964e-01|   -9.650610|   -9.117952|    0.000271|    0.003724|  5.0000e+02|   -3.791997|
|         563|  1.2967e-01|   -9.651200|   -9.118526|    0.000269|    0.003722|  5.0000e+02|   -3.792586|
|         564|  1.2972e-01|   -9.651817|   -9.119128|    0.000267|    0.003719|  5.0000e+02|   -3.793204|
|         565|  1.2981e-01|   -9.652463|   -9.119756|    0.000264|    0.003716|  5.0000e+02|   -3.793850|
|         566|  1.2980e-01|   -9.653135|   -9.120411|    0.000262|    0.003713|  5.0000e+02|   -3.794522|
|         567|  1.2987e-01|   -9.653834|   -9.121093|    0.000260|    0.003710|  5.0000e+02|   -3.795221|
|         568|  1.2990e-01|   -9.654559|   -9.121800|    0.000258|    0.003707|  5.0000e+02|   -3.795946|
|         569|  1.2989e-01|   -9.655310|   -9.122532|    0.000255|    0.003704|  5.0000e+02|   -3.796697|
|         570|  1.2988e-01|   -9.656086|   -9.123289|    0.000253|    0.003701|  5.0000e+02|   -3.797473|
|         571|  1.2987e-01|   -9.656887|   -9.124070|    0.000251|    0.003699|  5.0000e+02|   -3.798273|
|         572|  1.2986e-01|   -9.657712|   -9.124875|    0.000249|    0.003696|  5.0000e+02|   -3.799099|
|         573|  1.2986e-01|   -9.658561|   -9.125704|    0.000246|    0.003693|  5.0000e+02|   -3.799948|
|         574|  1.2985e-01|   -9.659434|   -9.126556|    0.000244|    0.003690|  5.0000e+02|   -3.800821|
|         575|  1.2984e-01|   -9.660330|   -9.127431|    0.000242|    0.003687|  5.0000e+02|   -3.801717|
|         576|  1.2984e-01|   -9.661249|   -9.128329|    0.000239|    0.003685|  5.0000e+02|   -3.802636|
|         577|  1.2985e-01|   -9.662191|   -9.129249|    0.000237|    0.003682|  5.0000e+02|   -3.803577|
|         578|  1.2984e-01|   -9.663155|   -9.130190|    0.000235|    0.003679|  5.0000e+02|   -3.804541|
|         579|  1.2983e-01|   -9.664140|   -9.131154|    0.000232|    0.003676|  5.0000e+02|   -3.805527|
|         580|  1.2982e-01|   -9.665148|   -9.132139|    0.000230|    0.003673|  5.0000e+02|   -3.806535|
|         581|  1.2982e-01|   -9.666176|   -9.133144|    0.000227|    0.003671|  5.0000e+02|   -3.807563|
|         582|  1.2982e-01|   -9.667225|   -9.134170|    0.000225|    0.003668|  5.0000e+02|   -3.808612|
|         583|  1.2982e-01|   -9.668295|   -9.135216|    0.000223|    0.003665|  5.0000e+02|   -3.809682|
|         584|  1.2981e-01|   -9.669384|   -9.136281|    0.000220|    0.003662|  5.0000e+02|   -3.810771|
|         585|  1.2981e-01|   -9.670493|   -9.137366|    0.000218|    0.003660|  5.0000e+02|   -3.811879|
|         586|  1.2980e-01|   -9.671620|   -9.138469|    0.000215|    0.003657|  5.0000e+02|   -3.813007|
|         587|  1.2979e-01|   -9.672766|   -9.139590|    0.000213|    0.003654|  5.0000e+02|   -3.814153|
|         588|  1.2978e-01|   -9.673930|   -9.140730|    0.000210|    0.003652|  5.0000e+02|   -3.815317|
|         589|  1.2978e-01|   -9.675111|   -9.141886|    0.000208|    0.003649|  5.0000e+02|   -3.816498|
|         590|  1.2981e-01|   -9.676310|   -9.143060|    0.000206|    0.003646|  5.0000e+02|   -3.817697|
|         591|  1.2982e-01|   -9.677526|   -9.144250|    0.000203|    0.003643|  5.0000e+02|   -3.818913|
|         592|  1.2983e-01|   -9.678758|   -9.145457|    0.000201|    0.003641|  5.0000e+02|   -3.820145|
|         593|  1.2982e-01|   -9.680007|   -9.146679|    0.000198|    0.003638|  5.0000e+02|   -3.821394|
|         594|  1.2981e-01|   -9.681271|   -9.147917|    0.000196|    0.003635|  5.0000e+02|   -3.822658|
|         595|  1.2980e-01|   -9.682551|   -9.149171|    0.000193|    0.003633|  5.0000e+02|   -3.823937|
|         596|  1.2979e-01|   -9.683845|   -9.150439|    0.000191|    0.003630|  5.0000e+02|   -3.825232|
|         597|  1.2978e-01|   -9.685155|   -9.151722|    0.000188|    0.003628|  5.0000e+02|   -3.826542|
|         598|  1.2978e-01|   -9.686480|   -9.153020|    0.000186|    0.003625|  5.0000e+02|   -3.827867|
|         599|  1.2977e-01|   -9.687819|   -9.154333|    0.000183|    0.003622|  5.0000e+02|   -3.829206|
|         600|  1.2976e-01|   -9.689172|   -9.155659|    0.000181|    0.003620|  5.0000e+02|   -3.830559|
|         601|  1.2976e-01|   -9.690539|   -9.156998|    0.000178|    0.003617|  5.0000e+02|   -3.831926|
|         602|  1.2975e-01|   -9.691919|   -9.158351|    0.000176|    0.003614|  5.0000e+02|   -3.833306|
|         603|  1.2974e-01|   -9.693312|   -9.159717|    0.000173|    0.003612|  5.0000e+02|   -3.834699|
|         604|  1.2973e-01|   -9.694718|   -9.161096|    0.000171|    0.003609|  5.0000e+02|   -3.836105|
|         605|  1.2973e-01|   -9.696137|   -9.162486|    0.000168|    0.003607|  5.0000e+02|   -3.837523|
|         606|  1.2972e-01|   -9.697567|   -9.163889|    0.000166|    0.003604|  5.0000e+02|   -3.838954|
|         607|  1.2971e-01|   -9.699008|   -9.165303|    0.000163|    0.003602|  5.0000e+02|   -3.840395|
|         608|  1.2971e-01|   -9.700461|   -9.166728|    0.000161|    0.003599|  5.0000e+02|   -3.841848|
|         609|  1.2971e-01|   -9.701925|   -9.168163|    0.000158|    0.003596|  5.0000e+02|   -3.843312|
|         610|  1.2972e-01|   -9.703399|   -9.169610|    0.000156|    0.003594|  5.0000e+02|   -3.844786|
|         611|  1.2971e-01|   -9.704884|   -9.171066|    0.000153|    0.003591|  5.0000e+02|   -3.846271|
|         612|  1.2971e-01|   -9.706378|   -9.172532|    0.000151|    0.003589|  5.0000e+02|   -3.847765|
[...]
|        5085|  1.2764e-01|  -12.931697|  -13.564168|   -0.000746|    0.002858|  5.0000e+02|   -7.073083|
|        5086|  1.2764e-01|  -12.932121|  -13.565066|   -0.000746|    0.002858|  5.0000e+02|   -7.073508|
|        5087|  1.2764e-01|  -12.932548|  -13.565747|   -0.000746|    0.002858|  5.0000e+02|   -7.073935|
|        5088|  1.2764e-01|  -12.932976|  -13.566113|   -0.000746|    0.002858|  5.0000e+02|   -7.074363|
|        5089|  1.2764e-01|  -12.933406|  -13.566024|   -0.000746|    0.002858|  5.0000e+02|   -7.074793|
|        5090|  1.2765e-01|  -12.933839|  -13.565404|   -0.000746|    0.002858|  5.0000e+02|   -7.075226|
|        5091|  1.2766e-01|  -12.934274|  -13.564506|   -0.000746|    0.002858|  5.0000e+02|   -7.075661|
|        5092|  1.2766e-01|  -12.934713|  -13.563871|   -0.000746|    0.002858|  5.0000e+02|   -7.076099|
|        5093|  1.2766e-01|  -12.935150|  -13.563923|   -0.000746|    0.002858|  5.0000e+02|   -7.076537|
|        5094|  1.2766e-01|  -12.935584|  -13.564705|   -0.000746|    0.002858|  5.0000e+02|   -7.076971|
|        5095|  1.2766e-01|  -12.936014|  -13.565979|   -0.000746|    0.002858|  5.0000e+02|   -7.077401|
|        5096|  1.2765e-01|  -12.936439|  -13.567417|   -0.000746|    0.002858|  5.0000e+02|   -7.077826|
|        5097|  1.2765e-01|  -12.936862|  -13.568776|   -0.000746|    0.002858|  5.0000e+02|   -7.078249|
|        5098|  1.2765e-01|  -12.937285|  -13.569979|   -0.000746|    0.002858|  5.0000e+02|   -7.078672|
|        5099|  1.2765e-01|  -12.937709|  -13.571035|   -0.000746|    0.002858|  5.0000e+02|   -7.079096|
|        5100|  1.2765e-01|  -12.938134|  -13.571934|   -0.000746|    0.002858|  5.0000e+02|   -7.079521|
|        5101|  1.2765e-01|  -12.938561|  -13.572613|   -0.000746|    0.002858|  5.0000e+02|   -7.079947|
|        5102|  1.2765e-01|  -12.938989|  -13.572972|   -0.000746|    0.002858|  5.0000e+02|   -7.080376|
|        5103|  1.2765e-01|  -12.939419|  -13.572870|   -0.000746|    0.002858|  5.0000e+02|   -7.080806|
|        5104|  1.2765e-01|  -12.939852|  -13.572236|   -0.000746|    0.002858|  5.0000e+02|   -7.081239|
|        5105|  1.2765e-01|  -12.940288|  -13.571331|   -0.000746|    0.002858|  5.0000e+02|   -7.081675|
|        5106|  1.2765e-01|  -12.940727|  -13.570707|   -0.000746|    0.002858|  5.0000e+02|   -7.082114|
|        5107|  1.2765e-01|  -12.941165|  -13.570776|   -0.000746|    0.002858|  5.0000e+02|   -7.082551|
|        5108|  1.2765e-01|  -12.941599|  -13.571575|   -0.000746|    0.002858|  5.0000e+02|   -7.082986|
|        5109|  1.2765e-01|  -12.942028|  -13.572860|   -0.000746|    0.002858|  5.0000e+02|   -7.083415|
|        5110|  1.2766e-01|  -12.942454|  -13.574302|   -0.000746|    0.002858|  5.0000e+02|   -7.083841|
|        5111|  1.2766e-01|  -12.942877|  -13.575660|   -0.000746|    0.002858|  5.0000e+02|   -7.084264|
|        5112|  1.2765e-01|  -12.943300|  -13.576861|   -0.000746|    0.002858|  5.0000e+02|   -7.084687|
|        5113|  1.2765e-01|  -12.943724|  -13.577918|   -0.000746|    0.002858|  5.0000e+02|   -7.085111|
|        5114|  1.2765e-01|  -12.944150|  -13.578815|   -0.000746|    0.002858|  5.0000e+02|   -7.085537|
|        5115|  1.2765e-01|  -12.944577|  -13.579490|   -0.000746|    0.002858|  5.0000e+02|   -7.085963|
|        5116|  1.2765e-01|  -12.945005|  -13.579839|   -0.000746|    0.002858|  5.0000e+02|   -7.086392|
|        5117|  1.2766e-01|  -12.945436|  -13.579720|   -0.000746|    0.002858|  5.0000e+02|   -7.086823|
|        5118|  1.2766e-01|  -12.945869|  -13.579067|   -0.000746|    0.002858|  5.0000e+02|   -7.087256|
|        5119|  1.2766e-01|  -12.946306|  -13.578157|   -0.000746|    0.002858|  5.0000e+02|   -7.087692|
|        5120|  1.2766e-01|  -12.946744|  -13.577544|   -0.000746|    0.002858|  5.0000e+02|   -7.088131|
|        5121|  1.2766e-01|  -12.947182|  -13.577637|   -0.000746|    0.002858|  5.0000e+02|   -7.088569|
|        5122|  1.2766e-01|  -12.947617|  -13.578459|   -0.000746|    0.002858|  5.0000e+02|   -7.089004|
|        5123|  1.2766e-01|  -12.948046|  -13.579759|   -0.000746|    0.002858|  5.0000e+02|   -7.089433|
|        5124|  1.2766e-01|  -12.948472|  -13.581204|   -0.000746|    0.002858|  5.0000e+02|   -7.089859|
|        5125|  1.2766e-01|  -12.948896|  -13.582561|   -0.000746|    0.002858|  5.0000e+02|   -7.090282|
|        5126|  1.2766e-01|  -12.949319|  -13.583759|   -0.000746|    0.002858|  5.0000e+02|   -7.090706|
|        5127|  1.2766e-01|  -12.949743|  -13.584815|   -0.000746|    0.002858|  5.0000e+02|   -7.091130|
|        5128|  1.2766e-01|  -12.950169|  -13.585710|   -0.000746|    0.002858|  5.0000e+02|   -7.091556|
|        5129|  1.2766e-01|  -12.950596|  -13.586377|   -0.000746|    0.002858|  5.0000e+02|   -7.091983|
|        5130|  1.2766e-01|  -12.951025|  -13.586713|   -0.000746|    0.002858|  5.0000e+02|   -7.092412|
|        5131|  1.2766e-01|  -12.951456|  -13.586573|   -0.000746|    0.002858|  5.0000e+02|   -7.092843|
|        5132|  1.2766e-01|  -12.951889|  -13.585898|   -0.000746|    0.002858|  5.0000e+02|   -7.093276|
|        5133|  1.2766e-01|  -12.952326|  -13.584982|   -0.000746|    0.002858|  5.0000e+02|   -7.093713|
|        5134|  1.2766e-01|  -12.952765|  -13.584387|   -0.000746|    0.002858|  5.0000e+02|   -7.094152|
|        5135|  1.2766e-01|  -12.953203|  -13.584511|   -0.000746|    0.002858|  5.0000e+02|   -7.094590|
|        5136|  1.2766e-01|  -12.953638|  -13.585360|   -0.000746|    0.002858|  5.0000e+02|   -7.095025|
|        5137|  1.2766e-01|  -12.954067|  -13.586676|   -0.000746|    0.002858|  5.0000e+02|   -7.095454|
|        5138|  1.2766e-01|  -12.954493|  -13.588124|   -0.000746|    0.002858|  5.0000e+02|   -7.095880|
|        5139|  1.2766e-01|  -12.954917|  -13.589477|   -0.000746|    0.002858|  5.0000e+02|   -7.096304|
|        5140|  1.2766e-01|  -12.955340|  -13.590674|   -0.000746|    0.002858|  5.0000e+02|   -7.096727|
|        5141|  1.2766e-01|  -12.955765|  -13.591726|   -0.000746|    0.002858|  5.0000e+02|   -7.097152|
|        5142|  1.2766e-01|  -12.956191|  -13.592616|   -0.000746|    0.002858|  5.0000e+02|   -7.097578|
|        5143|  1.2765e-01|  -12.956618|  -13.593274|   -0.000746|    0.002858|  5.0000e+02|   -7.098005|
|        5144|  1.2765e-01|  -12.957047|  -13.593594|   -0.000746|    0.002858|  5.0000e+02|   -7.098434|
|        5145|  1.2765e-01|  -12.957479|  -13.593426|   -0.000746|    0.002858|  5.0000e+02|   -7.098866|
|        5146|  1.2765e-01|  -12.957913|  -13.592724|   -0.000746|    0.002858|  5.0000e+02|   -7.099300|
|        5147|  1.2765e-01|  -12.958350|  -13.591804|   -0.000746|    0.002858|  5.0000e+02|   -7.099737|
|        5148|  1.2765e-01|  -12.958789|  -13.591234|   -0.000746|    0.002858|  5.0000e+02|   -7.100176|
|        5149|  1.2765e-01|  -12.959227|  -13.591395|   -0.000746|    0.002858|  5.0000e+02|   -7.100614|
|        5150|  1.2765e-01|  -12.959662|  -13.592276|   -0.000746|    0.002858|  5.0000e+02|   -7.101049|
|        5151|  1.2765e-01|  -12.960092|  -13.593609|   -0.000746|    0.002858|  5.0000e+02|   -7.101479|
|        5152|  1.2766e-01|  -12.960518|  -13.595061|   -0.000746|    0.002858|  5.0000e+02|   -7.101904|
|        5153|  1.2766e-01|  -12.960941|  -13.596410|   -0.000746|    0.002858|  5.0000e+02|   -7.102328|
|        5154|  1.2766e-01|  -12.961365|  -13.597601|   -0.000746|    0.002858|  5.0000e+02|   -7.102752|
|        5155|  1.2766e-01|  -12.961790|  -13.598651|   -0.000746|    0.002858|  5.0000e+02|   -7.103177|
|        5156|  1.2766e-01|  -12.962216|  -13.599535|   -0.000746|    0.002858|  5.0000e+02|   -7.103603|
|        5157|  1.2766e-01|  -12.962644|  -13.600182|   -0.000746|    0.002858|  5.0000e+02|   -7.104031|
|        5158|  1.2766e-01|  -12.963073|  -13.600480|   -0.000746|    0.002858|  5.0000e+02|   -7.104460|
|        5159|  1.2765e-01|  -12.963505|  -13.600279|   -0.000746|    0.002858|  5.0000e+02|   -7.104892|
|        5160|  1.2765e-01|  -12.963939|  -13.599548|   -0.000746|    0.002858|  5.0000e+02|   -7.105326|
|        5161|  1.2766e-01|  -12.964377|  -13.598625|   -0.000746|    0.002858|  5.0000e+02|   -7.105764|
|        5162|  1.2766e-01|  -12.964817|  -13.598085|   -0.000746|    0.002858|  5.0000e+02|   -7.106203|
|        5163|  1.2765e-01|  -12.965255|  -13.598289|   -0.000746|    0.002858|  5.0000e+02|   -7.106642|
|        5164|  1.2765e-01|  -12.965689|  -13.599209|   -0.000746|    0.002858|  5.0000e+02|   -7.107076|
|        5165|  1.2765e-01|  -12.966119|  -13.600561|   -0.000746|    0.002858|  5.0000e+02|   -7.107506|
|        5166|  1.2765e-01|  -12.966545|  -13.602016|   -0.000746|    0.002858|  5.0000e+02|   -7.107932|
|        5167|  1.2765e-01|  -12.966969|  -13.603359|   -0.000746|    0.002858|  5.0000e+02|   -7.108356|
|        5168|  1.2765e-01|  -12.967393|  -13.604546|   -0.000746|    0.002858|  5.0000e+02|   -7.108780|
|        5169|  1.2765e-01|  -12.967818|  -13.605591|   -0.000746|    0.002858|  5.0000e+02|   -7.109205|
|        5170|  1.2766e-01|  -12.968245|  -13.606466|   -0.000746|    0.002858|  5.0000e+02|   -7.109631|
|        5171|  1.2766e-01|  -12.968673|  -13.607099|   -0.000746|    0.002858|  5.0000e+02|   -7.110060|
|        5172|  1.2766e-01|  -12.969103|  -13.607372|   -0.000746|    0.002858|  5.0000e+02|   -7.110489|
|        5173|  1.2766e-01|  -12.969534|  -13.607135|   -0.000746|    0.002858|  5.0000e+02|   -7.110921|
|        5174|  1.2767e-01|  -12.969969|  -13.606371|   -0.000746|    0.002858|  5.0000e+02|   -7.111356|
|        5175|  1.2767e-01|  -12.970407|  -13.605448|   -0.000746|    0.002858|  5.0000e+02|   -7.111794|
|        5176|  1.2767e-01|  -12.970847|  -13.604945|   -0.000746|    0.002858|  5.0000e+02|   -7.112234|
|        5177|  1.2767e-01|  -12.971286|  -13.605199|   -0.000746|    0.002858|  5.0000e+02|   -7.112672|
|        5178|  1.2767e-01|  -12.971720|  -13.606160|   -0.000746|    0.002858|  5.0000e+02|   -7.113107|
|        5179|  1.2767e-01|  -12.972150|  -13.607533|   -0.000746|    0.002858|  5.0000e+02|   -7.113536|
|        5180|  1.2767e-01|  -12.972576|  -13.608987|   -0.000746|    0.002858|  5.0000e+02|   -7.113962|
|        5181|  1.2768e-01|  -12.973000|  -13.610323|   -0.000746|    0.002858|  5.0000e+02|   -7.114387|
|        5182|  1.2768e-01|  -12.973424|  -13.611504|   -0.000746|    0.002858|  5.0000e+02|   -7.114811|
|        5183|  1.2768e-01|  -12.973849|  -13.612543|   -0.000746|    0.002858|  5.0000e+02|   -7.115236|
|        5184|  1.2769e-01|  -12.974276|  -13.613410|   -0.000746|    0.002858|  5.0000e+02|   -7.115663|
|        5185|  1.2769e-01|  -12.974705|  -13.614024|   -0.000746|    0.002858|  5.0000e+02|   -7.116092|
|        5186|  1.2769e-01|  -12.975135|  -13.614267|   -0.000746|    0.002858|  5.0000e+02|   -7.116522|
|        5187|  1.2769e-01|  -12.975567|  -13.613987|   -0.000746|    0.002858|  5.0000e+02|   -7.116954|
|        5188|  1.2769e-01|  -12.976002|  -13.613188|   -0.000746|    0.002858|  5.0000e+02|   -7.117389|
|        5189|  1.2769e-01|  -12.976441|  -13.612270|   -0.000746|    0.002858|  5.0000e+02|   -7.117828|
|        5190|  1.2769e-01|  -12.976881|  -13.611810|   -0.000746|    0.002858|  5.0000e+02|   -7.118268|
|        5191|  1.2769e-01|  -12.977320|  -13.612123|   -0.000746|    0.002858|  5.0000e+02|   -7.118706|
|        5192|  1.2769e-01|  -12.977754|  -13.613128|   -0.000746|    0.002858|  5.0000e+02|   -7.119141|
|        5193|  1.2769e-01|  -12.978183|  -13.614522|   -0.000746|    0.002858|  5.0000e+02|   -7.119570|
|        5194|  1.2770e-01|  -12.978609|  -13.615976|   -0.000746|    0.002858|  5.0000e+02|   -7.119996|
|        5195|  1.2770e-01|  -12.979034|  -13.617304|   -0.000746|    0.002858|  5.0000e+02|   -7.120421|
|        5196|  1.2770e-01|  -12.979458|  -13.618477|   -0.000746|    0.002858|  5.0000e+02|   -7.120845|
|        5197|  1.2770e-01|  -12.979884|  -13.619510|   -0.000746|    0.002858|  5.0000e+02|   -7.121271|
|        5198|  1.2770e-01|  -12.980311|  -13.620364|   -0.000746|    0.002858|  5.0000e+02|   -7.121698|
|        5199|  1.2771e-01|  -12.980740|  -13.620957|   -0.000746|    0.002858|  5.0000e+02|   -7.122127|
|        5200|  1.2770e-01|  -12.981170|  -13.621165|   -0.000746|    0.002858|  5.0000e+02|   -7.122557|
|        5201|  1.2770e-01|  -12.981603|  -13.620837|   -0.000746|    0.002858|  5.0000e+02|   -7.122990|
|        5202|  1.2770e-01|  -12.982039|  -13.620002|   -0.000746|    0.002858|  5.0000e+02|   -7.123426|
|        5203|  1.2770e-01|  -12.982478|  -13.619093|   -0.000746|    0.002858|  5.0000e+02|   -7.123865|
|        5204|  1.2770e-01|  -12.982918|  -13.618686|   -0.000746|    0.002858|  5.0000e+02|   -7.124305|
|        5205|  1.2770e-01|  -12.983357|  -13.619061|   -0.000746|    0.002858|  5.0000e+02|   -7.124743|
|        5206|  1.2770e-01|  -12.983791|  -13.620115|   -0.000746|    0.002858|  5.0000e+02|   -7.125178|
|        5207|  1.2770e-01|  -12.984220|  -13.621529|   -0.000746|    0.002858|  5.0000e+02|   -7.125607|
|        5208|  1.2770e-01|  -12.984646|  -13.622982|   -0.000746|    0.002858|  5.0000e+02|   -7.126033|
|        5209|  1.2770e-01|  -12.985071|  -13.624300|   -0.000746|    0.002858|  5.0000e+02|   -7.126457|
|        5210|  1.2770e-01|  -12.985495|  -13.625465|   -0.000746|    0.002858|  5.0000e+02|   -7.126882|
|        5211|  1.2770e-01|  -12.985921|  -13.626489|   -0.000746|    0.002858|  5.0000e+02|   -7.127308|
|        5212|  1.2770e-01|  -12.986349|  -13.627329|   -0.000746|    0.002858|  5.0000e+02|   -7.127736|
|        5213|  1.2770e-01|  -12.986778|  -13.627897|   -0.000746|    0.002858|  5.0000e+02|   -7.128165|
|        5214|  1.2770e-01|  -12.987209|  -13.628065|   -0.000746|    0.002858|  5.0000e+02|   -7.128596|
|        5215|  1.2770e-01|  -12.987642|  -13.627683|   -0.000746|    0.002858|  5.0000e+02|   -7.129029|
|        5216|  1.2770e-01|  -12.988078|  -13.626813|   -0.000746|    0.002858|  5.0000e+02|   -7.129465|
|        5217|  1.2771e-01|  -12.988518|  -13.625918|   -0.000746|    0.002858|  5.0000e+02|   -7.129905|
|        5218|  1.2771e-01|  -12.988958|  -13.625571|   -0.000746|    0.002858|  5.0000e+02|   -7.130345|
|        5219|  1.2772e-01|  -12.989397|  -13.626016|   -0.000746|    0.002858|  5.0000e+02|   -7.130784|
|        5220|  1.2772e-01|  -12.989831|  -13.627121|   -0.000746|    0.002858|  5.0000e+02|   -7.131218|
|        5221|  1.2773e-01|  -12.990260|  -13.628554|   -0.000746|    0.002858|  5.0000e+02|   -7.131647|
|        5222|  1.2773e-01|  -12.990686|  -13.630004|   -0.000746|    0.002858|  5.0000e+02|   -7.132073|
|        5223|  1.2773e-01|  -12.991111|  -13.631310|   -0.000746|    0.002858|  5.0000e+02|   -7.132497|
|        5224|  1.2773e-01|  -12.991536|  -13.632468|   -0.000746|    0.002858|  5.0000e+02|   -7.132923|
|        5225|  1.2773e-01|  -12.991962|  -13.633481|   -0.000746|    0.002858|  5.0000e+02|   -7.133349|
|        5226|  1.2773e-01|  -12.992390|  -13.634304|   -0.000746|    0.002858|  5.0000e+02|   -7.133777|
|        5227|  1.2773e-01|  -12.992819|  -13.634843|   -0.000746|    0.002858|  5.0000e+02|   -7.134206|
|        5228|  1.2773e-01|  -12.993251|  -13.634964|   -0.000746|    0.002858|  5.0000e+02|   -7.134637|
|        5229|  1.2774e-01|  -12.993684|  -13.634523|   -0.000746|    0.002858|  5.0000e+02|   -7.135071|
|        5230|  1.2774e-01|  -12.994121|  -13.633616|   -0.000746|    0.002858|  5.0000e+02|   -7.135508|
|        5231|  1.2774e-01|  -12.994561|  -13.632747|   -0.000746|    0.002858|  5.0000e+02|   -7.135948|
|        5232|  1.2774e-01|  -12.995002|  -13.632470|   -0.000746|    0.002858|  5.0000e+02|   -7.136389|
|        5233|  1.2774e-01|  -12.995440|  -13.632990|   -0.000746|    0.002858|  5.0000e+02|   -7.136827|
|        5234|  1.2774e-01|  -12.995874|  -13.634146|   -0.000746|    0.002858|  5.0000e+02|   -7.137261|
|        5235|  1.2774e-01|  -12.996303|  -13.635597|   -0.000746|    0.002858|  5.0000e+02|   -7.137690|
|        5236|  1.2775e-01|  -12.996729|  -13.637040|   -0.000746|    0.002858|  5.0000e+02|   -7.138116|
|        5237|  1.2775e-01|  -12.997154|  -13.638334|   -0.000746|    0.002858|  5.0000e+02|   -7.138541|
|        5238|  1.2775e-01|  -12.997579|  -13.639481|   -0.000746|    0.002858|  5.0000e+02|   -7.138966|
|        5239|  1.2775e-01|  -12.998006|  -13.640484|   -0.000746|    0.002858|  5.0000e+02|   -7.139393|
|        5240|  1.2775e-01|  -12.998434|  -13.641286|   -0.000746|    0.002858|  5.0000e+02|   -7.139821|
|        5241|  1.2775e-01|  -12.998864|  -13.641794|   -0.000746|    0.002858|  5.0000e+02|   -7.140251|
|        5242|  1.2775e-01|  -12.999295|  -13.641861|   -0.000746|    0.002858|  5.0000e+02|   -7.140682|
|        5243|  1.2775e-01|  -12.999730|  -13.641355|   -0.000746|    0.002858|  5.0000e+02|   -7.141116|
|        5244|  1.2775e-01|  -13.000167|  -13.640416|   -0.000746|    0.002858|  5.0000e+02|   -7.141554|

----------------------------- Solver Exit -------------------------------
All convergence criteria satisfied.
+-----------------------------------------------------------------------+
|      Convergence Field     |     Value    |   Criterion  |  Converged |
+-----------------------------------------------------------------------+
|                    rms[Rho]|      -13.0002|         < -13|         Yes|
+-----------------------------------------------------------------------+
-------------------------------------------------------------------------
+-----------------------------------------------------------------------+
|        File Writing Summary       |              Filename             |
+-----------------------------------------------------------------------+
|SU2 restart                        |restart.dat                        |
|                                   |                      (834.08 MB/s)|
|Paraview                           |vol_solution.vtu                   |
|                                   |                     (706.367 MB/s)|
|Paraview surface                   |surface.vtu                        |
|                                   |                     (32.6555 MB/s)|
+-----------------------------------------------------------------------+

Writing the forces breakdown file (forces_breakdown.dat).

------------------------- Solver Postprocessing -------------------------
Deleted CNumerics container.
Deleted CIntegration container.
Deleted CSolver container.
Deleted CIteration container.
Deleted CInterface container.
Deleted CGeometry container.
Deleted CFreeFormDefBox class.
Deleted CSurfaceMovement class.
Deleted CVolumetricMovement class.
Deleted CConfig container.
Deleted nInst container.
Deleted COutput class.
-------------------------------------------------------------------------


-------------------------- Performance Summary --------------------------
Simulation totals:
   Wall-clock time (hrs):    0.186322 |            Core-hrs:      3.3538
                   Cores:          18 |          DOFs/point:           5
             Points/core:     11656.9 |   Ghost points/core:     459.556
 Ghost/Owned Point Ratio:   0.0394233 | 

Preprocessing phase:
       Preproc. Time (s):    0.598194 |   Preproc. Time (%):   0.0891816

Compute phase:
        Compute Time (s):     670.059 |    Compute Time (%):     99.8956
         Iteration count:        5245 |         Avg. s/iter:    0.127752
     Core-s/iter/Mpoints:     10.5436 |           Mpoints/s:     1.70719

Output phase:
         Output Time (s):    0.101991 |     Output Time (%):   0.0152053
            Output count:           1 |       Avg. s/output:    0.101991
 Restart Aggr. BW (MB/s):     17467.9 |           MB/s/core:     970.437
-------------------------------------------------------------------------


------------------------- Exit Success (SU2_CFD) ------------------------

Invalid MIT-MAGIC-COOKIE-1 key