running

-------------------------------------------------------------------------
|    ___ _   _ ___                                                      |
|   / __| | | |_  )   Release 7.0.8 "Blackbird"                         |
|   \__ \ |_| |/ /                                                      |
|   |___/\___//___|   Suite (Computational Fluid Dynamics Code)         |
|                                                                       |
-------------------------------------------------------------------------
| SU2 Project Website: https://su2code.github.io                        |
|                                                                       |
| The SU2 Project is maintained by the SU2 Foundation                   |
| (http://su2foundation.org)                                            |
-------------------------------------------------------------------------
| Copyright 2012-2020, SU2 Contributors                                 |
|                                                                       |
| SU2 is free software; you can redistribute it and/or                  |
| modify it under the terms of the GNU Lesser General Public            |
| License as published by the Free Software Foundation; either          |
| version 2.1 of the License, or (at your option) any later version.    |
|                                                                       |
| SU2 is distributed in the hope that it will be useful,                |
| but WITHOUT ANY WARRANTY; without even the implied warranty of        |
| MERCHANTABILITY or FITNESS FOR A PARTICULAR PURPOSE. See the GNU      |
| Lesser General Public License for more details.                       |
|                                                                       |
| You should have received a copy of the GNU Lesser General Public      |
| License along with SU2. If not, see <http://www.gnu.org/licenses/>.   |
-------------------------------------------------------------------------

Parsing config file for zone 0

----------------- Physical Case Definition ( Zone 0 ) -------------------
Compressible RANS equations.
Turbulence model: Spalart Allmaras
Hybrid RANS/LES: No Hybrid RANS/LES
Mach number: 0.2.
Angle of attack (AoA): 0 deg, and angle of sideslip (AoS): 0 deg.
Reynolds number: 5e+06. Reference length 1.
No restart solution, use the values at infinity (freestream).
Non-Dimensional simulation (P=1.0, Rho=1.0, T=1.0 at the farfield).
The reference area is 2 m^2.
The semi-span will be computed using the max y(3D) value.
The reference length is 1 m.
Reference origin for moment evaluation is (0, 0, 0).
Surface(s) where the force coefficients are evaluated: wall.

Surface(s) plotted in the output file: wall.
Input mesh file name: flatplate_turb_L2_273x193.su2

--------------- Space Numerical Integration ( Zone 0 ) ------------------
Roe (with entropy fix = 0.001) solver for the flow inviscid terms.
Standard Roe without low-dissipation function.
Second order integration in space, with slope limiter.
No slope-limiting method. 
Scalar upwind solver for the turbulence model.
First order integration in space.
Average of gradients with correction (viscous flow terms).
Average of gradients with correction (viscous turbulence terms).
Gradient for upwind reconstruction: Green-Gauss.
Gradient for viscous and source terms: Green-Gauss.

--------------- Time Numerical Integration  ( Zone 0 ) ------------------
Local time stepping (steady state simulation).
Euler implicit method for the flow equations.
FGMRES is used for solving the linear system.
Using a ILU(0) preconditioning.
Convergence criteria of the linear solver: 1e-10.
Max number of linear iterations: 10.
CFL adaptation. Factor down: 0.1, factor up: 1.2,
                lower limit: 10, upper limit: 500.
Courant-Friedrichs-Lewy number:       10
Euler implicit time integration for the turbulence model.

------------------ Convergence Criteria  ( Zone 0 ) ---------------------
Maximum number of solver subiterations: 99999.
Begin convergence monitoring at iteration 10.
Residual minimum value: 1e-13.
Cauchy series min. value: 1e-06.
Number of Cauchy elements: 100.
Begin windowed time average at iteration 0.

-------------------- Output Information ( Zone 0 ) ----------------------
Writing solution files every 250 iterations.
Writing the convergence history file every 1 inner iterations.
Writing the screen convergence history every 1 inner iterations.
The tabular file format is Tecplot (.dat).
Convergence history file name: history.
Forces breakdown file name: forces_breakdown.dat.
Surface file name: surface.
Volume file name: vol_solution.
Restart file name: restart.dat.

------------- Config File Boundary Information ( Zone 0 ) ---------------
+-----------------------------------------------------------------------+
|                        Marker Type|                        Marker Name|
+-----------------------------------------------------------------------+
|                     Symmetry plane|                           symmetry|
+-----------------------------------------------------------------------+
|                     Inlet boundary|                              inlet|
+-----------------------------------------------------------------------+
|                    Outlet boundary|                             outlet|
|                                   |                           farfield|
+-----------------------------------------------------------------------+
|                     Heat flux wall|                               wall|
+-----------------------------------------------------------------------+

-------------------- Output Preprocessing ( Zone 0 ) --------------------
Screen output fields: INNER_ITER, WALL_TIME, RMS_DENSITY, RMS_ENERGY, LIFT, DRAG, AVG_CFL, REL_RMS_DENSITY
History output group(s): ITER, AERO_COEFF, RMS_RES, REL_RMS_RES, CFL_NUMBER
Convergence field(s): RMS_DENSITY
Warning: No (valid) fields chosen for time convergence monitoring. Time convergence monitoring inactive.
Volume output fields: COORDINATES, SOLUTION, PRIMITIVE

------------------- Geometry Preprocessing ( Zone 0 ) -------------------
Two dimensional problem.
52689 grid points before partitioning.
52224 volume elements before partitioning.
5 surface markers.
272 boundary elements in index 0 (Marker = farfield).
192 boundary elements in index 1 (Marker = inlet).
192 boundary elements in index 2 (Marker = outlet).
48 boundary elements in index 3 (Marker = symmetry).
224 boundary elements in index 4 (Marker = wall).
Executing the partitioning functions.
Building the graph adjacency structure.
Calling ParMETIS... graph partitioning complete (1964 edge cuts).
Distributing ParMETIS coloring.
Rebalancing vertices.
Rebalancing volume element connectivity.
Rebalancing markers and surface elements.
56657 vertices including ghost points. 
54191 interior elements including halo cells. 
54191 quadrilaterals.
Establishing MPI communication patterns.
Setting point connectivity.
Renumbering points (Reverse Cuthill McKee Ordering).
Recomputing point connectivity.
Setting element connectivity.
Checking the numerical grid orientation.
All volume elements are correctly orientend.
All surface elements are correctly orientend.
Identifying edges and vertices.
Computing centers of gravity.
Setting the control volume structure.
Area of the computational grid: 2.38202.
Searching for the closest normal neighbors to the surfaces.
Storing a mapping from global to local point index.
Compute the surface curvature.
Max K: 96.7666. Mean K: 1.86848. Standard deviation K: 9.14222.
Checking for periodicity.
Computing mesh quality statistics for the dual control volumes.
+--------------------------------------------------------------+
|           Mesh Quality Metric|        Minimum|        Maximum|
+--------------------------------------------------------------+
|    Orthogonality Angle (deg.)|             90|             90|
|     CV Face Area Aspect Ratio|        1.00009|        42938.5|
|           CV Sub-Volume Ratio|              1|        1.13246|
+--------------------------------------------------------------+
Finding max control volume width.
Communicating number of neighbors.
Wetted area = 0.0329061 m.
Area projection in the x-plane = 0 m, y-plane = 0 m.
Max. coordinate in the x-direction = 2 m, y-direction = 0 m.
Min. coordinate in the x-direction = 0 m, y-direction = 0 m.
Checking if Euler & Symmetry markers are straight/plane:
Boundary marker symmetry is a single straight.
Computing wall distances.

-------------------- Solver Preprocessing ( Zone 0 ) --------------------
Viscous flow: Computing pressure using the ideal gas law
based on the free-stream temperature and a density computed
from the Reynolds number.
Force coefficients computed using free-stream values.

-- Models:
+------------------------------------------------------------------------------+
|          Viscosity Model|        Conductivity Model|              Fluid Model|
+------------------------------------------------------------------------------+
|               SUTHERLAND|          CONSTANT_PRANDTL|             STANDARD_AIR|
+------------------------------------------------------------------------------+
-- Fluid properties:
+------------------------------------------------------------------------------+
|                  Name|    Dim. value|    Ref. value|      Unit|Non-dim. value|
+------------------------------------------------------------------------------+
|        Ref. Viscosity|     1.716e-05|       390.021|   N.s/m^2|   4.39976e-08|
|      Sutherland Temp.|        273.15|           300|         K|        0.9105|
|     Sutherland Const.|         110.4|           300|         K|         0.368|
+------------------------------------------------------------------------------+
|        Prandtl (Lam.)|             -|             -|         -|          0.72|
|       Prandtl (Turb.)|             -|             -|         -|           0.9|
+------------------------------------------------------------------------------+
|          Gas Constant|       287.058|       287.058|  N.m/kg.K|             1|
|      Spec. Heat Ratio|             -|             -|         -|           1.4|
+------------------------------------------------------------------------------+
-- Initial and free-stream conditions:
+------------------------------------------------------------------------------+
|                  Name|    Dim. value|    Ref. value|      Unit|Non-dim. value|
+------------------------------------------------------------------------------+
|       Static Pressure|        114455|        114455|        Pa|             1|
|               Density|       1.32905|       1.32905|    kg/m^3|             1|
|           Temperature|           300|           300|         K|             1|
|          Total Energy|        217705|       86117.4|   m^2/s^2|         2.528|
|            Velocity-X|       69.4448|       293.458|       m/s|      0.236643|
|            Velocity-Y|             0|       293.458|       m/s|             0|
|    Velocity Magnitude|       69.4448|       293.458|       m/s|      0.236643|
+------------------------------------------------------------------------------+
|             Viscosity|   1.84592e-05|       390.021|   N.s/m^2|   4.73286e-08|
|          Conductivity|             -|        111959|   W/m^2.K|             -|
|     Turb. Kin. Energy|       18.0847|       86117.4|   m^2/s^2|       0.00021|
|     Spec. Dissipation|        130209|       293.458|       1/s|       443.706|
+------------------------------------------------------------------------------+
|           Mach Number|             -|             -|         -|           0.2|
|       Reynolds Number|             -|             -|         -|         5e+06|
+------------------------------------------------------------------------------+
Initialize Jacobian structure (Navier-Stokes). MG level: 0.
Initialize Jacobian structure (SA model).

------------------- Numerics Preprocessing ( Zone 0 ) -------------------

----------------- Integration Preprocessing ( Zone 0 ) ------------------

------------------- Iteration Preprocessing ( Zone 0 ) ------------------
Euler/Navier-Stokes/RANS fluid iteration.

------------------------------ Begin Solver -----------------------------

Simulation Run using the Single-zone Driver
+-------------------------------------------------------------------------------------------------------+
|  Inner_Iter|   Time(sec)|    rms[Rho]|   rms[RhoE]|          CL|          CD|     Avg CFL| relrms[Rho]|
+-------------------------------------------------------------------------------------------------------+
|           0|  3.2333e-02|   -8.560831|   -8.026332|   -0.400000|    0.403248|  1.2000e+01|    0.000000|
|           1|  3.2064e-02|   -5.407756|   -4.827503|   -0.255373|    0.334487|  1.4400e+01|    0.000000|
|           2|  3.1627e-02|   -5.732402|   -5.166374|   -0.081556|    0.279140|  1.7280e+01|   -0.324646|
|           3|  3.1469e-02|   -5.892262|   -5.347032|    0.014072|    0.235207|  2.0736e+01|   -0.484506|
|           4|  3.1331e-02|   -6.418948|   -5.889212|    0.033613|    0.200497|  2.4883e+01|   -1.011192|
|           5|  3.1239e-02|   -6.458386|   -5.869365|    0.025352|    0.172852|  2.9860e+01|   -1.050631|
|           6|  3.1189e-02|   -6.522512|   -5.938798|    0.017484|    0.150559|  3.5832e+01|   -1.114757|
|           7|  3.1107e-02|   -6.680236|   -6.108475|    0.013538|    0.132303|  4.2998e+01|   -1.272480|
|           8|  3.1038e-02|   -6.823628|   -6.253565|    0.010699|    0.117102|  5.1598e+01|   -1.415873|
|           9|  3.0991e-02|   -6.920961|   -6.345494|    0.008068|    0.104245|  6.1917e+01|   -1.513206|
|          10|  3.0988e-02|   -6.998653|   -6.423335|    0.005915|    0.093218|  7.4301e+01|   -1.590898|
|          11|  3.0949e-02|   -7.072694|   -6.499454|    0.004374|    0.083650|  8.9161e+01|   -1.664939|
|          12|  3.0931e-02|   -7.132946|   -6.562191|    0.003476|    0.075268|  1.0699e+02|   -1.725190|
|          13|  3.0979e-02|   -7.195089|   -6.624493|    0.003364|    0.067865|  1.2839e+02|   -1.787334|
|          14|  3.0963e-02|   -7.280918|   -6.707110|    0.004166|    0.061285|  1.5407e+02|   -1.873163|
|          15|  3.0968e-02|   -7.345048|   -6.772090|    0.005645|    0.055405|  1.8488e+02|   -1.937292|
|          16|  3.0947e-02|   -7.373207|   -6.804890|    0.007034|    0.050130|  2.2186e+02|   -1.965452|
|          17|  3.0937e-02|   -7.407282|   -6.843382|    0.007460|    0.045379|  2.6623e+02|   -1.999526|
|          18|  3.0941e-02|   -7.441589|   -6.879533|    0.006550|    0.041090|  3.1948e+02|   -2.033834|
|          19|  3.0928e-02|   -7.499225|   -6.932763|    0.004564|    0.037208|  3.8338e+02|   -2.091469|
|          20|  3.0913e-02|   -7.614937|   -7.039763|    0.002207|    0.033683|  4.6005e+02|   -2.207181|
|          21|  3.0890e-02|   -7.710100|   -7.132655|    0.000384|    0.030476|  5.0000e+02|   -2.302345|
|          22|  3.0893e-02|   -7.754706|   -7.182202|   -0.000336|    0.027775|  5.0000e+02|   -2.346950|
|          23|  3.0883e-02|   -7.842447|   -7.269800|   -0.000247|    0.025612|  5.0000e+02|   -2.434691|
|          24|  3.1497e-02|   -7.907934|   -7.333622|    0.000151|    0.023833|  5.0000e+02|   -2.500178|
|          25|  3.1475e-02|   -7.953824|   -7.377718|    0.000517|    0.022340|  5.0000e+02|   -2.546068|
|          26|  3.1452e-02|   -8.039897|   -7.460957|    0.000708|    0.021065|  5.0000e+02|   -2.632142|
|          27|  3.1418e-02|   -8.120812|   -7.543699|    0.000702|    0.019961|  5.0000e+02|   -2.713056|
|          28|  3.1396e-02|   -8.142752|   -7.569645|    0.000563|    0.018993|  5.0000e+02|   -2.734996|
|          29|  3.1384e-02|   -8.166995|   -7.592743|    0.000367|    0.018136|  5.0000e+02|   -2.759240|
|          30|  3.1356e-02|   -8.222275|   -7.645870|    0.000180|    0.017370|  5.0000e+02|   -2.814519|
|          31|  3.1331e-02|   -8.283187|   -7.708153|    0.000063|    0.016681|  5.0000e+02|   -2.875431|
|          32|  3.1340e-02|   -8.313110|   -7.741117|    0.000037|    0.016057|  5.0000e+02|   -2.905355|
|          33|  3.1343e-02|   -8.334787|   -7.762659|    0.000084|    0.015489|  5.0000e+02|   -2.927031|
|          34|  3.1342e-02|   -8.371897|   -7.798822|    0.000166|    0.014968|  5.0000e+02|   -2.964141|
|          35|  3.1322e-02|   -8.409749|   -7.837575|    0.000233|    0.014489|  5.0000e+02|   -3.001993|
|          36|  3.1304e-02|   -8.430063|   -7.859462|    0.000253|    0.014047|  5.0000e+02|   -3.022308|
|          37|  3.1299e-02|   -8.442268|   -7.872065|    0.000224|    0.013637|  5.0000e+02|   -3.034512|
|          38|  3.1278e-02|   -8.461848|   -7.891626|    0.000165|    0.013255|  5.0000e+02|   -3.054092|
|          39|  3.1264e-02|   -8.486941|   -7.917320|    0.000104|    0.012899|  5.0000e+02|   -3.079186|
|          40|  3.1248e-02|   -8.508410|   -7.939881|    0.000065|    0.012566|  5.0000e+02|   -3.100654|
|          41|  3.1242e-02|   -8.524281|   -7.956671|    0.000055|    0.012253|  5.0000e+02|   -3.116526|
|          42|  3.1227e-02|   -8.539255|   -7.972221|    0.000066|    0.011959|  5.0000e+02|   -3.131499|
|          43|  3.1225e-02|   -8.555044|   -7.988489|    0.000084|    0.011682|  5.0000e+02|   -3.147289|
|          44|  3.1212e-02|   -8.569886|   -8.003801|    0.000093|    0.011420|  5.0000e+02|   -3.162131|
|          45|  3.1206e-02|   -8.583976|   -8.018226|    0.000087|    0.011173|  5.0000e+02|   -3.176220|
|          46|  3.1193e-02|   -8.599157|   -8.033565|    0.000069|    0.010938|  5.0000e+02|   -3.191401|
|          47|  3.1204e-02|   -8.614868|   -8.049402|    0.000047|    0.010715|  5.0000e+02|   -3.207112|
|          48|  3.1199e-02|   -8.628845|   -8.063603|    0.000031|    0.010503|  5.0000e+02|   -3.221089|
|          49|  3.1191e-02|   -8.640449|   -8.075507|    0.000024|    0.010302|  5.0000e+02|   -3.232693|
|          50|  3.1184e-02|   -8.651379|   -8.086732|    0.000026|    0.010109|  5.0000e+02|   -3.243623|
|          51|  3.1173e-02|   -8.663364|   -8.098984|    0.000033|    0.009926|  5.0000e+02|   -3.255608|
|          52|  3.1176e-02|   -8.676642|   -8.112506|    0.000040|    0.009750|  5.0000e+02|   -3.268887|
|          53|  3.1169e-02|   -8.690380|   -8.126450|    0.000045|    0.009582|  5.0000e+02|   -3.282624|
|          54|  3.1159e-02|   -8.703742|   -8.139970|    0.000046|    0.009421|  5.0000e+02|   -3.295986|
|          55|  3.1147e-02|   -8.716319|   -8.152667|    0.000044|    0.009267|  5.0000e+02|   -3.308563|
|          56|  3.1140e-02|   -8.727915|   -8.164391|    0.000042|    0.009119|  5.0000e+02|   -3.320160|
|          57|  3.1141e-02|   -8.738401|   -8.175044|    0.000040|    0.008977|  5.0000e+02|   -3.330645|
|          58|  3.1131e-02|   -8.747804|   -8.184665|    0.000040|    0.008841|  5.0000e+02|   -3.340048|
|          59|  3.1132e-02|   -8.756396|   -8.193510|    0.000040|    0.008709|  5.0000e+02|   -3.348641|
|          60|  3.1126e-02|   -8.764606|   -8.201991|    0.000040|    0.008583|  5.0000e+02|   -3.356850|
|          61|  3.1123e-02|   -8.772840|   -8.210496|    0.000040|    0.008461|  5.0000e+02|   -3.365084|
|          62|  3.1114e-02|   -8.781406|   -8.219320|    0.000039|    0.008343|  5.0000e+02|   -3.373651|
|          63|  3.1108e-02|   -8.790417|   -8.228564|    0.000037|    0.008230|  5.0000e+02|   -3.382662|
|          64|  3.1101e-02|   -8.799718|   -8.238074|    0.000033|    0.008121|  5.0000e+02|   -3.391962|
|          65|  3.1098e-02|   -8.808941|   -8.247491|    0.000030|    0.008015|  5.0000e+02|   -3.401185|
|          66|  3.1089e-02|   -8.817690|   -8.256433|    0.000027|    0.007913|  5.0000e+02|   -3.409935|
|          67|  3.1081e-02|   -8.825741|   -8.264687|    0.000025|    0.007814|  5.0000e+02|   -3.417985|
|          68|  3.1074e-02|   -8.833118|   -8.272287|    0.000024|    0.007719|  5.0000e+02|   -3.425363|
|          69|  3.1074e-02|   -8.840071|   -8.279482|    0.000024|    0.007626|  5.0000e+02|   -3.432315|
|          70|  3.1067e-02|   -8.846946|   -8.286612|    0.000024|    0.007537|  5.0000e+02|   -3.439190|
|          71|  3.1070e-02|   -8.853995|   -8.293922|    0.000025|    0.007450|  5.0000e+02|   -3.446240|
|          72|  3.1063e-02|   -8.861306|   -8.301498|    0.000026|    0.007366|  5.0000e+02|   -3.453550|
|          73|  3.1063e-02|   -8.868820|   -8.309280|    0.000027|    0.007285|  5.0000e+02|   -3.461064|
|          74|  3.1057e-02|   -8.876368|   -8.317097|    0.000029|    0.007206|  5.0000e+02|   -3.468612|
|          75|  3.1049e-02|   -8.883714|   -8.324718|    0.000030|    0.007130|  5.0000e+02|   -3.475958|
|          76|  3.1045e-02|   -8.890629|   -8.331916|    0.000031|    0.007056|  5.0000e+02|   -3.482874|
|          77|  3.1045e-02|   -8.896959|   -8.338541|    0.000033|    0.006984|  5.0000e+02|   -3.489203|
|          78|  3.1039e-02|   -8.902682|   -8.344576|    0.000034|    0.006914|  5.0000e+02|   -3.494926|
|          79|  3.1039e-02|   -8.907928|   -8.350146|    0.000035|    0.006846|  5.0000e+02|   -3.500172|
|          80|  3.1041e-02|   -8.912929|   -8.355482|    0.000036|    0.006781|  5.0000e+02|   -3.505173|
|          81|  3.1037e-02|   -8.917912|   -8.360806|    0.000036|    0.006717|  5.0000e+02|   -3.510156|
|          82|  3.1032e-02|   -8.923011|   -8.366254|    0.000036|    0.006655|  5.0000e+02|   -3.515255|
|          83|  3.1028e-02|   -8.928241|   -8.371842|    0.000036|    0.006595|  5.0000e+02|   -3.520485|
|          84|  3.1024e-02|   -8.933499|   -8.377471|    0.000035|    0.006536|  5.0000e+02|   -3.525744|
|          85|  3.1024e-02|   -8.938613|   -8.382968|    0.000035|    0.006480|  5.0000e+02|   -3.530857|
|          86|  3.1019e-02|   -8.943395|   -8.388153|    0.000035|    0.006424|  5.0000e+02|   -3.535640|
|          87|  3.1013e-02|   -8.947719|   -8.392899|    0.000034|    0.006371|  5.0000e+02|   -3.539964|
|          88|  3.1020e-02|   -8.951568|   -8.397188|    0.000035|    0.006319|  5.0000e+02|   -3.543812|
|          89|  3.1143e-02|   -8.955040|   -8.401117|    0.000035|    0.006268|  5.0000e+02|   -3.547284|
|          90|  3.1139e-02|   -8.958316|   -8.404862|    0.000036|    0.006219|  5.0000e+02|   -3.550561|
|          91|  3.1133e-02|   -8.961583|   -8.408605|    0.000037|    0.006171|  5.0000e+02|   -3.553828|
|          92|  3.1127e-02|   -8.964967|   -8.412470|    0.000038|    0.006125|  5.0000e+02|   -3.557211|
|          93|  3.1125e-02|   -8.968495|   -8.416489|    0.000039|    0.006080|  5.0000e+02|   -3.560740|
|          94|  3.1120e-02|   -8.972102|   -8.420593|    0.000041|    0.006036|  5.0000e+02|   -3.564346|
|          95|  3.1116e-02|   -8.975664|   -8.424657|    0.000042|    0.005993|  5.0000e+02|   -3.567909|
|          96|  3.1114e-02|   -8.979034|   -8.428535|    0.000044|    0.005952|  5.0000e+02|   -3.571278|
|          97|  3.1108e-02|   -8.982082|   -8.432094|    0.000046|    0.005912|  5.0000e+02|   -3.574326|
|          98|  3.1103e-02|   -8.984775|   -8.435295|    0.000048|    0.005873|  5.0000e+02|   -3.577019|
|          99|  3.1098e-02|   -8.987155|   -8.438186|    0.000049|    0.005835|  5.0000e+02|   -3.579399|
|         100|  3.1098e-02|   -8.989329|   -8.440867|    0.000050|    0.005799|  5.0000e+02|   -3.581573|
|         101|  3.1094e-02|   -8.991450|   -8.443490|    0.000052|    0.005763|  5.0000e+02|   -3.583694|
|         102|  3.1089e-02|   -8.993618|   -8.446163|    0.000053|    0.005729|  5.0000e+02|   -3.585862|
|         103|  3.1085e-02|   -8.995861|   -8.448909|    0.000054|    0.005695|  5.0000e+02|   -3.588105|
|         104|  3.1083e-02|   -8.998155|   -8.451705|    0.000055|    0.005663|  5.0000e+02|   -3.590400|
|         105|  3.1079e-02|   -9.000398|   -8.454446|    0.000055|    0.005631|  5.0000e+02|   -3.592642|
|         106|  3.1075e-02|   -9.002488|   -8.457024|    0.000056|    0.005600|  5.0000e+02|   -3.594733|
|         107|  3.1071e-02|   -9.004349|   -8.459364|    0.000057|    0.005571|  5.0000e+02|   -3.596593|
|         108|  3.1071e-02|   -9.005949|   -8.461424|    0.000058|    0.005542|  5.0000e+02|   -3.598194|
|         109|  3.1068e-02|   -9.007371|   -8.463285|    0.000060|    0.005514|  5.0000e+02|   -3.599615|
|         110|  3.1065e-02|   -9.008715|   -8.465051|    0.000061|    0.005487|  5.0000e+02|   -3.600959|
|         111|  3.1068e-02|   -9.010125|   -8.466867|    0.000063|    0.005461|  5.0000e+02|   -3.602370|
|         112|  3.1096e-02|   -9.011716|   -8.468855|    0.000065|    0.005436|  5.0000e+02|   -3.603961|
|         113|  3.1091e-02|   -9.013537|   -8.471060|    0.000067|    0.005411|  5.0000e+02|   -3.605781|
|         114|  3.1086e-02|   -9.015598|   -8.473498|    0.000069|    0.005387|  5.0000e+02|   -3.607843|
|         115|  3.1082e-02|   -9.017815|   -8.476076|    0.000071|    0.005364|  5.0000e+02|   -3.610059|
|         116|  3.1081e-02|   -9.020114|   -8.478719|    0.000074|    0.005342|  5.0000e+02|   -3.612358|
|         117|  3.1076e-02|   -9.022385|   -8.481314|    0.000076|    0.005320|  5.0000e+02|   -3.614630|
|         118|  3.1074e-02|   -9.024566|   -8.483796|    0.000078|    0.005299|  5.0000e+02|   -3.616811|
|         119|  3.1071e-02|   -9.026636|   -8.486146|    0.000080|    0.005279|  5.0000e+02|   -3.618880|
|         120|  3.1070e-02|   -9.028620|   -8.488386|    0.000082|    0.005259|  5.0000e+02|   -3.620864|
|         121|  3.1067e-02|   -9.030585|   -8.490593|    0.000084|    0.005240|  5.0000e+02|   -3.622830|
|         122|  3.1063e-02|   -9.032576|   -8.492808|    0.000086|    0.005221|  5.0000e+02|   -3.624821|
|         123|  3.1059e-02|   -9.034652|   -8.495094|    0.000088|    0.005203|  5.0000e+02|   -3.626897|
|         124|  3.1058e-02|   -9.036791|   -8.497433|    0.000090|    0.005185|  5.0000e+02|   -3.629035|
|         125|  3.1056e-02|   -9.038967|   -8.499796|    0.000092|    0.005168|  5.0000e+02|   -3.631212|
|         126|  3.1053e-02|   -9.041113|   -8.502114|    0.000094|    0.005151|  5.0000e+02|   -3.633357|
|         127|  3.1050e-02|   -9.043181|   -8.504338|    0.000096|    0.005135|  5.0000e+02|   -3.635425|
|         128|  3.1049e-02|   -9.045141|   -8.506436|    0.000097|    0.005119|  5.0000e+02|   -3.637385|
|         129|  3.1046e-02|   -9.047009|   -8.508425|    0.000099|    0.005104|  5.0000e+02|   -3.639253|
|         130|  3.1042e-02|   -9.048840|   -8.510362|    0.000101|    0.005089|  5.0000e+02|   -3.641084|
|         131|  3.1040e-02|   -9.050704|   -8.512320|    0.000104|    0.005074|  5.0000e+02|   -3.642948|
|         132|  3.1039e-02|   -9.052687|   -8.514392|    0.000106|    0.005060|  5.0000e+02|   -3.644932|
|         133|  3.1037e-02|   -9.054831|   -8.516619|    0.000108|    0.005046|  5.0000e+02|   -3.647075|
|         134|  3.1035e-02|   -9.057165|   -8.519033|    0.000111|    0.005032|  5.0000e+02|   -3.649409|
|         135|  3.1033e-02|   -9.059652|   -8.521596|    0.000114|    0.005019|  5.0000e+02|   -3.651896|
|         136|  3.1034e-02|   -9.062236|   -8.524251|    0.000116|    0.005006|  5.0000e+02|   -3.654480|
|         137|  3.1031e-02|   -9.064835|   -8.526912|    0.000119|    0.004993|  5.0000e+02|   -3.657079|
|         138|  3.1028e-02|   -9.067380|   -8.529507|    0.000121|    0.004981|  5.0000e+02|   -3.659625|
|         139|  3.1026e-02|   -9.069821|   -8.531984|    0.000124|    0.004968|  5.0000e+02|   -3.662066|
|         140|  3.1027e-02|   -9.072137|   -8.534321|    0.000126|    0.004956|  5.0000e+02|   -3.664381|
|         141|  3.1023e-02|   -9.074340|   -8.536535|    0.000129|    0.004944|  5.0000e+02|   -3.666584|
|         142|  3.1019e-02|   -9.076449|   -8.538645|    0.000131|    0.004932|  5.0000e+02|   -3.668693|
|         143|  3.1016e-02|   -9.078500|   -8.540690|    0.000134|    0.004921|  5.0000e+02|   -3.670744|
|         144|  3.1018e-02|   -9.080500|   -8.542681|    0.000136|    0.004909|  5.0000e+02|   -3.672745|
|         145|  3.1016e-02|   -9.082446|   -8.544615|    0.000138|    0.004898|  5.0000e+02|   -3.674690|
|         146|  3.1014e-02|   -9.084314|   -8.546473|    0.000141|    0.004887|  5.0000e+02|   -3.676559|
|         147|  3.1011e-02|   -9.086081|   -8.548229|    0.000143|    0.004876|  5.0000e+02|   -3.678326|
|         148|  3.1032e-02|   -9.087732|   -8.549869|    0.000145|    0.004865|  5.0000e+02|   -3.679977|
|         149|  3.1029e-02|   -9.089270|   -8.551392|    0.000148|    0.004854|  5.0000e+02|   -3.681514|
|         150|  3.1030e-02|   -9.090728|   -8.552834|    0.000150|    0.004844|  5.0000e+02|   -3.682972|
|         151|  3.1027e-02|   -9.092151|   -8.554240|    0.000153|    0.004833|  5.0000e+02|   -3.684395|
|         152|  3.1026e-02|   -9.093595|   -8.555667|    0.000155|    0.004822|  5.0000e+02|   -3.685839|
|         153|  3.1023e-02|   -9.095106|   -8.557165|    0.000158|    0.004812|  5.0000e+02|   -3.687351|
|         154|  3.1020e-02|   -9.096713|   -8.558760|    0.000160|    0.004802|  5.0000e+02|   -3.688957|
|         155|  3.1018e-02|   -9.098415|   -8.560456|    0.000163|    0.004792|  5.0000e+02|   -3.690660|
|         156|  3.1017e-02|   -9.100186|   -8.562222|    0.000166|    0.004781|  5.0000e+02|   -3.692431|
|         157|  3.1015e-02|   -9.101984|   -8.564012|    0.000169|    0.004771|  5.0000e+02|   -3.694228|
|         158|  3.1012e-02|   -9.103754|   -8.565772|    0.000171|    0.004761|  5.0000e+02|   -3.695999|
|         159|  3.1010e-02|   -9.105451|   -8.567452|    0.000174|    0.004751|  5.0000e+02|   -3.697695|
|         160|  3.1010e-02|   -9.107042|   -8.569017|    0.000177|    0.004741|  5.0000e+02|   -3.699286|
|         161|  3.1008e-02|   -9.108508|   -8.570450|    0.000179|    0.004732|  5.0000e+02|   -3.700752|
|         162|  3.1005e-02|   -9.109849|   -8.571753|    0.000182|    0.004722|  5.0000e+02|   -3.702094|
|         163|  3.1003e-02|   -9.111071|   -8.572933|    0.000185|    0.004712|  5.0000e+02|   -3.703315|
|         164|  3.1003e-02|   -9.112179|   -8.574000|    0.000187|    0.004702|  5.0000e+02|   -3.704423|
|         165|  3.1000e-02|   -9.113178|   -8.574961|    0.000190|    0.004693|  5.0000e+02|   -3.705422|
|         166|  3.0998e-02|   -9.114066|   -8.575814|    0.000193|    0.004683|  5.0000e+02|   -3.706310|
|         167|  3.0997e-02|   -9.114844|   -8.576559|    0.000195|    0.004673|  5.0000e+02|   -3.707089|
|         168|  3.0996e-02|   -9.115512|   -8.577196|    0.000198|    0.004664|  5.0000e+02|   -3.707757|
|         169|  3.0993e-02|   -9.116077|   -8.577731|    0.000200|    0.004654|  5.0000e+02|   -3.708321|
|         170|  3.0991e-02|   -9.116554|   -8.578183|    0.000203|    0.004645|  5.0000e+02|   -3.708799|
|         171|  3.0989e-02|   -9.116969|   -8.578575|    0.000205|    0.004635|  5.0000e+02|   -3.709213|
|         172|  3.0989e-02|   -9.117352|   -8.578941|    0.000208|    0.004626|  5.0000e+02|   -3.709596|
|         173|  3.1070e-02|   -9.117737|   -8.579315|    0.000211|    0.004617|  5.0000e+02|   -3.709981|
|         174|  3.1070e-02|   -9.118154|   -8.579728|    0.000214|    0.004607|  5.0000e+02|   -3.710399|
|         175|  3.1067e-02|   -9.118626|   -8.580202|    0.000216|    0.004598|  5.0000e+02|   -3.710871|
|         176|  3.1069e-02|   -9.119159|   -8.580743|    0.000219|    0.004589|  5.0000e+02|   -3.711403|
|         177|  3.1067e-02|   -9.119742|   -8.581340|    0.000222|    0.004579|  5.0000e+02|   -3.711987|
|         178|  3.1064e-02|   -9.120349|   -8.581964|    0.000225|    0.004570|  5.0000e+02|   -3.712594|
|         179|  3.1064e-02|   -9.120943|   -8.582576|    0.000228|    0.004561|  5.0000e+02|   -3.713188|
|         180|  3.1061e-02|   -9.121486|   -8.583138|    0.000231|    0.004552|  5.0000e+02|   -3.713731|
|         181|  3.1059e-02|   -9.121946|   -8.583615|    0.000233|    0.004542|  5.0000e+02|   -3.714190|
|         182|  3.1056e-02|   -9.122301|   -8.583985|    0.000236|    0.004533|  5.0000e+02|   -3.714545|
|         183|  3.1057e-02|   -9.122538|   -8.584236|    0.000239|    0.004524|  5.0000e+02|   -3.714783|
|         184|  3.1055e-02|   -9.122653|   -8.584364|    0.000242|    0.004515|  5.0000e+02|   -3.714898|
|         185|  3.1052e-02|   -9.122645|   -8.584369|    0.000244|    0.004506|  5.0000e+02|   -3.714889|
|         186|  3.1050e-02|   -9.122513|   -8.584252|    0.000247|    0.004497|  5.0000e+02|   -3.714757|
|         187|  3.1050e-02|   -9.122258|   -8.584016|    0.000250|    0.004488|  5.0000e+02|   -3.714502|
|         188|  3.1047e-02|   -9.121883|   -8.583664|    0.000253|    0.004479|  5.0000e+02|   -3.714127|
|         189|  3.1045e-02|   -9.121396|   -8.583203|    0.000255|    0.004470|  5.0000e+02|   -3.713640|
|         190|  3.1044e-02|   -9.120809|   -8.582648|    0.000258|    0.004461|  5.0000e+02|   -3.713053|
|         191|  3.1044e-02|   -9.120142|   -8.582018|    0.000261|    0.004452|  5.0000e+02|   -3.712386|
|         192|  3.1042e-02|   -9.119421|   -8.581340|    0.000263|    0.004443|  5.0000e+02|   -3.711666|
|         193|  3.1041e-02|   -9.118675|   -8.580642|    0.000266|    0.004434|  5.0000e+02|   -3.710919|
|         194|  3.1039e-02|   -9.117928|   -8.579951|    0.000269|    0.004425|  5.0000e+02|   -3.710172|
|         195|  3.1039e-02|   -9.117202|   -8.579288|    0.000272|    0.004417|  5.0000e+02|   -3.709446|
|         196|  3.1037e-02|   -9.116506|   -8.578662|    0.000275|    0.004408|  5.0000e+02|   -3.708751|
|         197|  3.1035e-02|   -9.115842|   -8.578072|    0.000277|    0.004399|  5.0000e+02|   -3.708086|
|         198|  3.1033e-02|   -9.115198|   -8.577508|    0.000280|    0.004390|  5.0000e+02|   -3.707442|
|         199|  3.1033e-02|   -9.114555|   -8.576948|    0.000283|    0.004382|  5.0000e+02|   -3.706799|
|         200|  3.1031e-02|   -9.113890|   -8.576368|    0.000286|    0.004373|  5.0000e+02|   -3.706134|
|         201|  3.1028e-02|   -9.113179|   -8.575743|    0.000289|    0.004364|  5.0000e+02|   -3.705423|
|         202|  3.1027e-02|   -9.112398|   -8.575047|    0.000291|    0.004356|  5.0000e+02|   -3.704642|
|         203|  3.1027e-02|   -9.111528|   -8.574263|    0.000294|    0.004347|  5.0000e+02|   -3.703772|
|         204|  3.1025e-02|   -9.110556|   -8.573376|    0.000297|    0.004339|  5.0000e+02|   -3.702800|
|         205|  3.1023e-02|   -9.109471|   -8.572374|    0.000300|    0.004330|  5.0000e+02|   -3.701716|
|         206|  3.1022e-02|   -9.108269|   -8.571255|    0.000302|    0.004321|  5.0000e+02|   -3.700514|
|         207|  3.1023e-02|   -9.106948|   -8.570016|    0.000305|    0.004313|  5.0000e+02|   -3.699193|
|         208|  3.1026e-02|   -9.105510|   -8.568659|    0.000308|    0.004304|  5.0000e+02|   -3.697754|
|         209|  3.1025e-02|   -9.103961|   -8.567193|    0.000310|    0.004296|  5.0000e+02|   -3.696205|
|         210|  3.1024e-02|   -9.102312|   -8.565627|    0.000313|    0.004288|  5.0000e+02|   -3.694556|
|         211|  3.1024e-02|   -9.100577|   -8.563979|    0.000316|    0.004279|  5.0000e+02|   -3.692822|
|         212|  3.1021e-02|   -9.098777|   -8.562269|    0.000318|    0.004271|  5.0000e+02|   -3.691022|
|         213|  3.1019e-02|   -9.096935|   -8.560521|    0.000321|    0.004263|  5.0000e+02|   -3.689179|
|         214|  3.1018e-02|   -9.095073|   -8.558758|    0.000323|    0.004254|  5.0000e+02|   -3.687317|
|         215|  3.1018e-02|   -9.093212|   -8.557002|    0.000326|    0.004246|  5.0000e+02|   -3.685457|
|         216|  3.1016e-02|   -9.091370|   -8.555270|    0.000329|    0.004238|  5.0000e+02|   -3.683614|
|         217|  3.1014e-02|   -9.089556|   -8.553571|    0.000331|    0.004229|  5.0000e+02|   -3.681800|
|         218|  3.1013e-02|   -9.087771|   -8.551908|    0.000334|    0.004221|  5.0000e+02|   -3.680015|
|         219|  3.1013e-02|   -9.086010|   -8.550274|    0.000336|    0.004213|  5.0000e+02|   -3.678255|
|         220|  3.1012e-02|   -9.084263|   -8.548657|    0.000339|    0.004205|  5.0000e+02|   -3.676507|
|         221|  3.1010e-02|   -9.082512|   -8.547039|    0.000342|    0.004197|  5.0000e+02|   -3.674757|
|         222|  3.1009e-02|   -9.080738|   -8.545400|    0.000344|    0.004189|  5.0000e+02|   -3.672983|
|         223|  3.1008e-02|   -9.078923|   -8.543719|    0.000347|    0.004181|  5.0000e+02|   -3.671167|
|         224|  3.1006e-02|   -9.077045|   -8.541977|    0.000349|    0.004173|  5.0000e+02|   -3.669290|
|         225|  3.1005e-02|   -9.075089|   -8.540154|    0.000352|    0.004165|  5.0000e+02|   -3.667334|
|         226|  3.1004e-02|   -9.073040|   -8.538238|    0.000354|    0.004157|  5.0000e+02|   -3.665285|
|         227|  3.1004e-02|   -9.070889|   -8.536216|    0.000356|    0.004149|  5.0000e+02|   -3.663133|
|         228|  3.1001e-02|   -9.068628|   -8.534084|    0.000359|    0.004141|  5.0000e+02|   -3.660872|
|         229|  3.1000e-02|   -9.066256|   -8.531838|    0.000361|    0.004133|  5.0000e+02|   -3.658501|
|         230|  3.0999e-02|   -9.063778|   -8.529483|    0.000363|    0.004125|  5.0000e+02|   -3.656022|
|         231|  3.0999e-02|   -9.061201|   -8.527028|    0.000366|    0.004118|  5.0000e+02|   -3.653446|
|         232|  3.0997e-02|   -9.058539|   -8.524487|    0.000368|    0.004110|  5.0000e+02|   -3.650783|
|         233|  3.0995e-02|   -9.055808|   -8.521878|    0.000370|    0.004102|  5.0000e+02|   -3.648052|
|         234|  3.0994e-02|   -9.053028|   -8.519220|    0.000372|    0.004095|  5.0000e+02|   -3.645272|
|         235|  3.0993e-02|   -9.050217|   -8.516534|    0.000374|    0.004087|  5.0000e+02|   -3.642461|
|         236|  3.0991e-02|   -9.047393|   -8.513837|    0.000376|    0.004079|  5.0000e+02|   -3.639638|
|         237|  3.0989e-02|   -9.044572|   -8.511146|    0.000378|    0.004072|  5.0000e+02|   -3.636816|
|         238|  3.0988e-02|   -9.041763|   -8.508470|    0.000380|    0.004064|  5.0000e+02|   -3.634007|
|         239|  3.0989e-02|   -9.038970|   -8.505815|    0.000382|    0.004057|  5.0000e+02|   -3.631214|
|         240|  3.0987e-02|   -9.036194|   -8.503180|    0.000384|    0.004049|  5.0000e+02|   -3.628438|
|         241|  3.1000e-02|   -9.033430|   -8.500559|    0.000386|    0.004042|  5.0000e+02|   -3.625674|
|         242|  3.0998e-02|   -9.030667|   -8.497943|    0.000388|    0.004034|  5.0000e+02|   -3.622912|
|         243|  3.0998e-02|   -9.027894|   -8.495316|    0.000390|    0.004027|  5.0000e+02|   -3.620138|
|         244|  3.0997e-02|   -9.025096|   -8.492664|    0.000391|    0.004019|  5.0000e+02|   -3.617340|
|         245|  3.0996e-02|   -9.022258|   -8.489972|    0.000393|    0.004012|  5.0000e+02|   -3.614503|
|         246|  3.0995e-02|   -9.019367|   -8.487224|    0.000394|    0.004005|  5.0000e+02|   -3.611611|
|         247|  3.0995e-02|   -9.016409|   -8.484406|    0.000396|    0.003998|  5.0000e+02|   -3.608653|
|         248|  3.0993e-02|   -9.013376|   -8.481511|    0.000397|    0.003990|  5.0000e+02|   -3.605620|
|         249|  3.0991e-02|   -9.010262|   -8.478529|    0.000398|    0.003983|  5.0000e+02|   -3.602506|
|         250|  3.0990e-02|   -9.007064|   -8.475459|    0.000400|    0.003976|  5.0000e+02|   -3.599309|
+-----------------------------------------------------------------------+
|        File Writing Summary       |              Filename             |
+-----------------------------------------------------------------------+
|SU2 restart                        |restart.dat                        |
|                                   |                     (711.068 MB/s)|
|Paraview                           |vol_solution.vtu                   |
|                                   |                     (588.794 MB/s)|
|Paraview surface                   |surface.vtu                        |
|                                   |                     (25.2386 MB/s)|
+-----------------------------------------------------------------------+

Writing the forces breakdown file (forces_breakdown.dat).
+-------------------------------------------------------------------------------------------------------+
|  Inner_Iter|   Time(sec)|    rms[Rho]|   rms[RhoE]|          CL|          CD|     Avg CFL| relrms[Rho]|
+-------------------------------------------------------------------------------------------------------+
|         251|  3.1123e-02|   -9.003787|   -8.472304|    0.000401|    0.003969|  5.0000e+02|   -3.596031|
|         252|  3.1121e-02|   -9.000436|   -8.469073|    0.000402|    0.003962|  5.0000e+02|   -3.592681|
|         253|  3.1119e-02|   -8.997024|   -8.465776|    0.000402|    0.003955|  5.0000e+02|   -3.589269|
|         254|  3.1121e-02|   -8.993565|   -8.462428|    0.000403|    0.003948|  5.0000e+02|   -3.585809|
|         255|  3.1120e-02|   -8.990076|   -8.459049|    0.000404|    0.003941|  5.0000e+02|   -3.582321|
|         256|  3.1117e-02|   -8.986579|   -8.455659|    0.000404|    0.003934|  5.0000e+02|   -3.578823|
|         257|  3.1116e-02|   -8.983090|   -8.452277|    0.000405|    0.003927|  5.0000e+02|   -3.575335|
|         258|  3.1115e-02|   -8.979629|   -8.448923|    0.000405|    0.003920|  5.0000e+02|   -3.571874|
|         259|  3.1113e-02|   -8.976213|   -8.445614|    0.000405|    0.003913|  5.0000e+02|   -3.568458|
|         260|  3.1111e-02|   -8.972858|   -8.442366|    0.000405|    0.003906|  5.0000e+02|   -3.565102|
|         261|  3.1109e-02|   -8.969573|   -8.439190|    0.000405|    0.003899|  5.0000e+02|   -3.561817|
|         262|  3.1109e-02|   -8.966366|   -8.436093|    0.000405|    0.003893|  5.0000e+02|   -3.558610|
|         263|  3.1107e-02|   -8.963245|   -8.433081|    0.000405|    0.003886|  5.0000e+02|   -3.555489|
|         264|  3.1105e-02|   -8.960213|   -8.430158|    0.000404|    0.003879|  5.0000e+02|   -3.552457|
|         265|  3.1103e-02|   -8.957271|   -8.427324|    0.000403|    0.003873|  5.0000e+02|   -3.549516|
|         266|  3.1103e-02|   -8.954418|   -8.424576|    0.000403|    0.003866|  5.0000e+02|   -3.546662|
|         267|  3.1101e-02|   -8.951654|   -8.421914|    0.000402|    0.003859|  5.0000e+02|   -3.543898|
|         268|  3.1099e-02|   -8.948978|   -8.419337|    0.000400|    0.003853|  5.0000e+02|   -3.541223|
|         269|  3.1098e-02|   -8.946392|   -8.416843|    0.000399|    0.003846|  5.0000e+02|   -3.538636|
|         270|  3.1098e-02|   -8.943894|   -8.414432|    0.000398|    0.003840|  5.0000e+02|   -3.536138|
|         271|  3.1096e-02|   -8.941485|   -8.412104|    0.000396|    0.003833|  5.0000e+02|   -3.533729|
|         272|  3.1095e-02|   -8.939170|   -8.409863|    0.000394|    0.003827|  5.0000e+02|   -3.531415|
|         273|  3.1094e-02|   -8.936957|   -8.407717|    0.000392|    0.003821|  5.0000e+02|   -3.529202|
|         274|  3.1094e-02|   -8.934853|   -8.405673|    0.000390|    0.003814|  5.0000e+02|   -3.527097|
|         275|  3.1093e-02|   -8.932865|   -8.403738|    0.000388|    0.003808|  5.0000e+02|   -3.525109|
|         276|  3.1091e-02|   -8.931003|   -8.401924|    0.000385|    0.003802|  5.0000e+02|   -3.523248|
|         277|  3.1089e-02|   -8.929279|   -8.400241|    0.000383|    0.003795|  5.0000e+02|   -3.521523|
|         278|  3.1089e-02|   -8.927704|   -8.398704|    0.000380|    0.003789|  5.0000e+02|   -3.519949|
|         279|  3.1087e-02|   -8.926290|   -8.397322|    0.000377|    0.003783|  5.0000e+02|   -3.518534|
|         280|  3.1085e-02|   -8.925044|   -8.396107|    0.000374|    0.003777|  5.0000e+02|   -3.517289|
|         281|  3.1106e-02|   -8.923973|   -8.395063|    0.000371|    0.003771|  5.0000e+02|   -3.516218|
|         282|  3.1123e-02|   -8.923082|   -8.394197|    0.000368|    0.003765|  5.0000e+02|   -3.515326|
|         283|  3.1122e-02|   -8.922372|   -8.393511|    0.000364|    0.003759|  5.0000e+02|   -3.514616|
|         284|  3.1120e-02|   -8.921845|   -8.393008|    0.000361|    0.003752|  5.0000e+02|   -3.514090|
|         285|  3.1118e-02|   -8.921500|   -8.392684|    0.000357|    0.003746|  5.0000e+02|   -3.513744|
|         286|  3.1117e-02|   -8.921331|   -8.392535|    0.000354|    0.003741|  5.0000e+02|   -3.513576|
|         287|  3.1116e-02|   -8.921332|   -8.392554|    0.000350|    0.003735|  5.0000e+02|   -3.513576|
|         288|  3.1114e-02|   -8.921493|   -8.392731|    0.000346|    0.003729|  5.0000e+02|   -3.513737|
|         289|  3.1114e-02|   -8.921805|   -8.393057|    0.000342|    0.003723|  5.0000e+02|   -3.514049|
|         290|  3.1113e-02|   -8.922258|   -8.393520|    0.000338|    0.003717|  5.0000e+02|   -3.514502|
|         291|  3.1112e-02|   -8.922842|   -8.394111|    0.000333|    0.003711|  5.0000e+02|   -3.515087|
|         292|  3.1110e-02|   -8.923550|   -8.394821|    0.000329|    0.003705|  5.0000e+02|   -3.515794|
|         293|  3.1108e-02|   -8.924370|   -8.395639|    0.000324|    0.003700|  5.0000e+02|   -3.516615|
|         294|  3.1108e-02|   -8.925296|   -8.396559|    0.000320|    0.003694|  5.0000e+02|   -3.517541|
|         295|  3.1106e-02|   -8.926322|   -8.397572|    0.000315|    0.003688|  5.0000e+02|   -3.518566|
|         296|  3.1105e-02|   -8.927442|   -8.398677|    0.000311|    0.003683|  5.0000e+02|   -3.519686|
|         297|  3.1103e-02|   -8.928656|   -8.399872|    0.000306|    0.003677|  5.0000e+02|   -3.520901|
|         298|  3.1103e-02|   -8.929965|   -8.401159|    0.000301|    0.003671|  5.0000e+02|   -3.522210|
|         299|  3.1101e-02|   -8.931371|   -8.402540|    0.000296|    0.003666|  5.0000e+02|   -3.523616|
|         300|  3.1100e-02|   -8.932877|   -8.404019|    0.000292|    0.003660|  5.0000e+02|   -3.525121|
|         301|  3.1099e-02|   -8.934485|   -8.405600|    0.000287|    0.003655|  5.0000e+02|   -3.526730|
|         302|  3.1098e-02|   -8.936200|   -8.407287|    0.000282|    0.003649|  5.0000e+02|   -3.528444|
|         303|  3.1097e-02|   -8.938021|   -8.409081|    0.000277|    0.003644|  5.0000e+02|   -3.530265|
|         304|  3.1098e-02|   -8.939949|   -8.410982|    0.000272|    0.003639|  5.0000e+02|   -3.532193|
|         305|  3.1097e-02|   -8.941982|   -8.412989|    0.000267|    0.003633|  5.0000e+02|   -3.534227|
|         306|  3.1099e-02|   -8.944117|   -8.415099|    0.000262|    0.003628|  5.0000e+02|   -3.536361|
|         307|  3.1098e-02|   -8.946348|   -8.417305|    0.000257|    0.003623|  5.0000e+02|   -3.538592|
|         308|  3.1097e-02|   -8.948668|   -8.419601|    0.000251|    0.003617|  5.0000e+02|   -3.540912|
|         309|  3.1096e-02|   -8.951069|   -8.421978|    0.000246|    0.003612|  5.0000e+02|   -3.543313|
|         310|  3.1096e-02|   -8.953542|   -8.424428|    0.000241|    0.003607|  5.0000e+02|   -3.545787|
|         311|  3.1095e-02|   -8.956079|   -8.426940|    0.000236|    0.003602|  5.0000e+02|   -3.548324|
|         312|  3.1095e-02|   -8.958670|   -8.429504|    0.000231|    0.003597|  5.0000e+02|   -3.550915|
|         313|  3.1094e-02|   -8.961307|   -8.432113|    0.000226|    0.003591|  5.0000e+02|   -3.553552|
|         314|  3.1094e-02|   -8.963982|   -8.434758|    0.000220|    0.003586|  5.0000e+02|   -3.556227|
|         315|  3.1092e-02|   -8.966691|   -8.437434|    0.000215|    0.003581|  5.0000e+02|   -3.558935|
|         316|  3.1091e-02|   -8.969428|   -8.440137|    0.000210|    0.003576|  5.0000e+02|   -3.561672|
|         317|  3.1089e-02|   -8.972192|   -8.442865|    0.000205|    0.003571|  5.0000e+02|   -3.564437|
|         318|  3.1089e-02|   -8.974984|   -8.445619|    0.000200|    0.003566|  5.0000e+02|   -3.567228|
|         319|  3.1088e-02|   -8.977804|   -8.448400|    0.000194|    0.003561|  5.0000e+02|   -3.570049|
|         320|  3.1087e-02|   -8.980657|   -8.451213|    0.000189|    0.003556|  5.0000e+02|   -3.572901|
|         321|  3.1085e-02|   -8.983544|   -8.454060|    0.000184|    0.003552|  5.0000e+02|   -3.575789|
|         322|  3.1085e-02|   -8.986471|   -8.456947|    0.000179|    0.003547|  5.0000e+02|   -3.578716|
|         323|  3.1083e-02|   -8.989441|   -8.459878|    0.000174|    0.003542|  5.0000e+02|   -3.581685|
|         324|  3.1082e-02|   -8.992456|   -8.462855|    0.000168|    0.003537|  5.0000e+02|   -3.584700|
|         325|  3.1081e-02|   -8.995518|   -8.465880|    0.000163|    0.003532|  5.0000e+02|   -3.587762|
|         326|  3.1081e-02|   -8.998627|   -8.468953|    0.000158|    0.003528|  5.0000e+02|   -3.590871|
|         327|  3.1080e-02|   -9.001780|   -8.472073|    0.000153|    0.003523|  5.0000e+02|   -3.594025|
|         328|  3.1078e-02|   -9.004976|   -8.475235|    0.000148|    0.003518|  5.0000e+02|   -3.597220|
|         329|  3.1077e-02|   -9.008208|   -8.478436|    0.000143|    0.003513|  5.0000e+02|   -3.600453|
|         330|  3.1077e-02|   -9.011472|   -8.481669|    0.000138|    0.003509|  5.0000e+02|   -3.603717|
|         331|  3.1076e-02|   -9.014760|   -8.484926|    0.000133|    0.003504|  5.0000e+02|   -3.607005|
|         332|  3.1074e-02|   -9.018066|   -8.488201|    0.000128|    0.003500|  5.0000e+02|   -3.610311|
|         333|  3.1074e-02|   -9.021383|   -8.491486|    0.000123|    0.003495|  5.0000e+02|   -3.613627|
|         334|  3.1074e-02|   -9.024704|   -8.494776|    0.000118|    0.003491|  5.0000e+02|   -3.616949|
|         335|  3.1107e-02|   -9.028025|   -8.498063|    0.000113|    0.003486|  5.0000e+02|   -3.620269|
|         336|  3.1108e-02|   -9.031342|   -8.501346|    0.000108|    0.003482|  5.0000e+02|   -3.623586|
|         337|  3.1107e-02|   -9.034652|   -8.504621|    0.000103|    0.003477|  5.0000e+02|   -3.626896|
|         338|  3.1106e-02|   -9.037955|   -8.507887|    0.000098|    0.003473|  5.0000e+02|   -3.630199|
|         339|  3.1105e-02|   -9.041252|   -8.511147|    0.000093|    0.003468|  5.0000e+02|   -3.633496|
|         340|  3.1104e-02|   -9.044545|   -8.514402|    0.000088|    0.003464|  5.0000e+02|   -3.636789|
|         341|  3.1104e-02|   -9.047838|   -8.517656|    0.000084|    0.003460|  5.0000e+02|   -3.640082|
|         342|  3.1102e-02|   -9.051134|   -8.520914|    0.000079|    0.003455|  5.0000e+02|   -3.643378|
|         343|  3.1101e-02|   -9.054437|   -8.524180|    0.000074|    0.003451|  5.0000e+02|   -3.646681|
|         344|  3.1100e-02|   -9.057751|   -8.527457|    0.000069|    0.003447|  5.0000e+02|   -3.649996|
|         345|  3.1101e-02|   -9.061080|   -8.530750|    0.000065|    0.003443|  5.0000e+02|   -3.653324|
|         346|  3.1099e-02|   -9.064424|   -8.534060|    0.000060|    0.003439|  5.0000e+02|   -3.656668|
|         347|  3.1098e-02|   -9.067785|   -8.537388|    0.000055|    0.003434|  5.0000e+02|   -3.660029|
|         348|  3.1097e-02|   -9.071162|   -8.540733|    0.000051|    0.003430|  5.0000e+02|   -3.663407|
|         349|  3.1097e-02|   -9.074553|   -8.544094|    0.000046|    0.003426|  5.0000e+02|   -3.666798|
|         350|  3.1095e-02|   -9.077955|   -8.547467|    0.000042|    0.003422|  5.0000e+02|   -3.670200|
|         351|  3.1094e-02|   -9.081364|   -8.550847|    0.000037|    0.003418|  5.0000e+02|   -3.673609|
|         352|  3.1092e-02|   -9.084775|   -8.554230|    0.000033|    0.003414|  5.0000e+02|   -3.677020|
|         353|  3.1093e-02|   -9.088184|   -8.557611|    0.000028|    0.003410|  5.0000e+02|   -3.680428|
|         354|  3.1092e-02|   -9.091584|   -8.560983|    0.000024|    0.003406|  5.0000e+02|   -3.683828|
|         355|  3.1090e-02|   -9.094972|   -8.564343|    0.000019|    0.003402|  5.0000e+02|   -3.687217|
|         356|  3.1089e-02|   -9.098345|   -8.567687|    0.000015|    0.003398|  5.0000e+02|   -3.690589|
|         357|  3.1089e-02|   -9.101700|   -8.571012|    0.000010|    0.003394|  5.0000e+02|   -3.693944|
|         358|  3.1087e-02|   -9.105036|   -8.574317|    0.000006|    0.003390|  5.0000e+02|   -3.697280|
|         359|  3.1086e-02|   -9.108353|   -8.577603|    0.000002|    0.003386|  5.0000e+02|   -3.700597|
|         360|  3.1085e-02|   -9.111652|   -8.580871|   -0.000002|    0.003383|  5.0000e+02|   -3.703897|
|         361|  3.1085e-02|   -9.114937|   -8.584124|   -0.000007|    0.003379|  5.0000e+02|   -3.707182|
|         362|  3.1084e-02|   -9.118211|   -8.587365|   -0.000011|    0.003375|  5.0000e+02|   -3.710455|
|         363|  3.1083e-02|   -9.121476|   -8.590599|   -0.000015|    0.003371|  5.0000e+02|   -3.713721|
|         364|  3.1082e-02|   -9.124738|   -8.593829|   -0.000019|    0.003368|  5.0000e+02|   -3.716983|
|         365|  3.1082e-02|   -9.128000|   -8.597060|   -0.000023|    0.003364|  5.0000e+02|   -3.720244|
|         366|  3.1081e-02|   -9.131264|   -8.600295|   -0.000028|    0.003360|  5.0000e+02|   -3.723508|
|         367|  3.1079e-02|   -9.134533|   -8.603535|   -0.000032|    0.003357|  5.0000e+02|   -3.726777|
|         368|  3.1078e-02|   -9.137808|   -8.606783|   -0.000036|    0.003353|  5.0000e+02|   -3.730052|
|         369|  3.1089e-02|   -9.141088|   -8.610037|   -0.000040|    0.003349|  5.0000e+02|   -3.733332|
|         370|  3.1088e-02|   -9.144372|   -8.613296|   -0.000044|    0.003346|  5.0000e+02|   -3.736617|
|         371|  3.1087e-02|   -9.147659|   -8.616559|   -0.000048|    0.003342|  5.0000e+02|   -3.739903|
|         372|  3.1086e-02|   -9.150945|   -8.619822|   -0.000052|    0.003339|  5.0000e+02|   -3.743189|
|         373|  3.1085e-02|   -9.154226|   -8.623080|   -0.000056|    0.003335|  5.0000e+02|   -3.746471|
|         374|  3.1084e-02|   -9.157500|   -8.626331|   -0.000060|    0.003332|  5.0000e+02|   -3.749744|
|         375|  3.1083e-02|   -9.160762|   -8.629570|   -0.000064|    0.003328|  5.0000e+02|   -3.753006|
|         376|  3.1082e-02|   -9.164009|   -8.632794|   -0.000068|    0.003325|  5.0000e+02|   -3.756253|
|         377|  3.1082e-02|   -9.167239|   -8.636000|   -0.000071|    0.003321|  5.0000e+02|   -3.759483|
|         378|  3.1081e-02|   -9.170450|   -8.639187|   -0.000075|    0.003318|  5.0000e+02|   -3.762695|
|         379|  3.1079e-02|   -9.173642|   -8.642355|   -0.000079|    0.003315|  5.0000e+02|   -3.765887|
|         380|  3.1079e-02|   -9.176816|   -8.645503|   -0.000083|    0.003311|  5.0000e+02|   -3.769060|
|         381|  3.1079e-02|   -9.179972|   -8.648634|   -0.000087|    0.003308|  5.0000e+02|   -3.772217|
|         382|  3.1077e-02|   -9.183114|   -8.651750|   -0.000090|    0.003305|  5.0000e+02|   -3.775359|
|         383|  3.1076e-02|   -9.186245|   -8.654855|   -0.000094|    0.003301|  5.0000e+02|   -3.778489|
|         384|  3.1075e-02|   -9.189367|   -8.657951|   -0.000098|    0.003298|  5.0000e+02|   -3.781611|
|         385|  3.1075e-02|   -9.192484|   -8.661043|   -0.000101|    0.003295|  5.0000e+02|   -3.784728|
|         386|  3.1074e-02|   -9.195599|   -8.664134|   -0.000105|    0.003292|  5.0000e+02|   -3.787843|
|         387|  3.1072e-02|   -9.198715|   -8.667226|   -0.000109|    0.003288|  5.0000e+02|   -3.790959|
|         388|  3.1072e-02|   -9.201833|   -8.670321|   -0.000112|    0.003285|  5.0000e+02|   -3.794077|
|         389|  3.1072e-02|   -9.204955|   -8.673421|   -0.000116|    0.003282|  5.0000e+02|   -3.797199|
|         390|  3.1071e-02|   -9.208080|   -8.676525|   -0.000119|    0.003279|  5.0000e+02|   -3.800324|
|         391|  3.1070e-02|   -9.211207|   -8.679633|   -0.000123|    0.003276|  5.0000e+02|   -3.803451|
|         392|  3.1070e-02|   -9.214335|   -8.682742|   -0.000126|    0.003273|  5.0000e+02|   -3.806580|
|         393|  3.1069e-02|   -9.217462|   -8.685850|   -0.000130|    0.003270|  5.0000e+02|   -3.809707|
|         394|  3.1068e-02|   -9.220585|   -8.688954|   -0.000133|    0.003267|  5.0000e+02|   -3.812830|
|         395|  3.1067e-02|   -9.223701|   -8.692052|   -0.000137|    0.003264|  5.0000e+02|   -3.815945|
|         396|  3.1066e-02|   -9.226807|   -8.695139|   -0.000140|    0.003261|  5.0000e+02|   -3.819052|
|         397|  3.1066e-02|   -9.229901|   -8.698215|   -0.000144|    0.003258|  5.0000e+02|   -3.822146|
|         398|  3.1065e-02|   -9.232982|   -8.701276|   -0.000147|    0.003255|  5.0000e+02|   -3.825226|
|         399|  3.1064e-02|   -9.236047|   -8.704322|   -0.000151|    0.003252|  5.0000e+02|   -3.828292|
|         400|  3.1063e-02|   -9.239098|   -8.707353|   -0.000154|    0.003249|  5.0000e+02|   -3.831342|
|         401|  3.1064e-02|   -9.242134|   -8.710368|   -0.000157|    0.003246|  5.0000e+02|   -3.834378|
|         402|  3.1064e-02|   -9.245157|   -8.713371|   -0.000161|    0.003243|  5.0000e+02|   -3.837401|
|         403|  3.1063e-02|   -9.248169|   -8.716362|   -0.000164|    0.003240|  5.0000e+02|   -3.840414|
|         404|  3.1062e-02|   -9.251173|   -8.719345|   -0.000167|    0.003237|  5.0000e+02|   -3.843417|
|         405|  3.1062e-02|   -9.254171|   -8.722323|   -0.000171|    0.003235|  5.0000e+02|   -3.846416|
|         406|  3.1061e-02|   -9.257166|   -8.725298|   -0.000174|    0.003232|  5.0000e+02|   -3.849411|
|         407|  3.1060e-02|   -9.260161|   -8.728273|   -0.000177|    0.003229|  5.0000e+02|   -3.852406|
|         408|  3.1059e-02|   -9.263158|   -8.731250|   -0.000180|    0.003226|  5.0000e+02|   -3.855402|
|         409|  3.1058e-02|   -9.266157|   -8.734231|   -0.000183|    0.003224|  5.0000e+02|   -3.858402|
|         410|  3.1057e-02|   -9.269161|   -8.737216|   -0.000187|    0.003221|  5.0000e+02|   -3.861405|
|         411|  3.1056e-02|   -9.272168|   -8.740206|   -0.000190|    0.003218|  5.0000e+02|   -3.864412|
|         412|  3.1056e-02|   -9.275178|   -8.743200|   -0.000193|    0.003216|  5.0000e+02|   -3.867422|
|         413|  3.1056e-02|   -9.278190|   -8.746196|   -0.000196|    0.003213|  5.0000e+02|   -3.870435|
|         414|  3.1055e-02|   -9.281202|   -8.749193|   -0.000199|    0.003210|  5.0000e+02|   -3.873447|
|         415|  3.1054e-02|   -9.284212|   -8.752187|   -0.000202|    0.003208|  5.0000e+02|   -3.876456|
|         416|  3.1053e-02|   -9.287218|   -8.755177|   -0.000205|    0.003205|  5.0000e+02|   -3.879462|
|         417|  3.1052e-02|   -9.290217|   -8.758161|   -0.000208|    0.003202|  5.0000e+02|   -3.882461|
|         418|  3.1051e-02|   -9.293207|   -8.761136|   -0.000211|    0.003200|  5.0000e+02|   -3.885452|
|         419|  3.1050e-02|   -9.296188|   -8.764101|   -0.000214|    0.003197|  5.0000e+02|   -3.888432|
|         420|  3.1049e-02|   -9.299159|   -8.767055|   -0.000218|    0.003195|  5.0000e+02|   -3.891403|
|         421|  3.1050e-02|   -9.302119|   -8.769998|   -0.000221|    0.003192|  5.0000e+02|   -3.894363|
|         422|  3.1049e-02|   -9.305069|   -8.772931|   -0.000223|    0.003190|  5.0000e+02|   -3.897313|
|         423|  3.1065e-02|   -9.308010|   -8.775855|   -0.000226|    0.003187|  5.0000e+02|   -3.900254|
|         424|  3.1079e-02|   -9.310944|   -8.778772|   -0.000229|    0.003185|  5.0000e+02|   -3.903188|
|         425|  3.1079e-02|   -9.313873|   -8.781683|   -0.000232|    0.003182|  5.0000e+02|   -3.906117|
|         426|  3.1078e-02|   -9.316799|   -8.784592|   -0.000235|    0.003180|  5.0000e+02|   -3.909043|
|         427|  3.1077e-02|   -9.319724|   -8.787500|   -0.000238|    0.003178|  5.0000e+02|   -3.911968|
|         428|  3.1076e-02|   -9.322650|   -8.790410|   -0.000241|    0.003175|  5.0000e+02|   -3.914895|
|         429|  3.1075e-02|   -9.325580|   -8.793322|   -0.000244|    0.003173|  5.0000e+02|   -3.917824|
|         430|  3.1074e-02|   -9.328513|   -8.796240|   -0.000247|    0.003170|  5.0000e+02|   -3.920757|
|         431|  3.1073e-02|   -9.331450|   -8.799162|   -0.000250|    0.003168|  5.0000e+02|   -3.923695|
|         432|  3.1074e-02|   -9.334392|   -8.802089|   -0.000252|    0.003166|  5.0000e+02|   -3.926637|
|         433|  3.1073e-02|   -9.337338|   -8.805021|   -0.000255|    0.003163|  5.0000e+02|   -3.929583|
|         434|  3.1073e-02|   -9.340287|   -8.807956|   -0.000258|    0.003161|  5.0000e+02|   -3.932531|
|         435|  3.1072e-02|   -9.343237|   -8.810892|   -0.000261|    0.003159|  5.0000e+02|   -3.935481|
|         436|  3.1072e-02|   -9.346186|   -8.813828|   -0.000264|    0.003157|  5.0000e+02|   -3.938431|
|         437|  3.1071e-02|   -9.349134|   -8.816762|   -0.000266|    0.003154|  5.0000e+02|   -3.941378|
|         438|  3.1069e-02|   -9.352077|   -8.819692|   -0.000269|    0.003152|  5.0000e+02|   -3.944322|
|         439|  3.1069e-02|   -9.355015|   -8.822616|   -0.000272|    0.003150|  5.0000e+02|   -3.947260|
|         440|  3.1069e-02|   -9.357947|   -8.825534|   -0.000275|    0.003148|  5.0000e+02|   -3.950191|
|         441|  3.1068e-02|   -9.360872|   -8.828444|   -0.000277|    0.003146|  5.0000e+02|   -3.953116|
|         442|  3.1067e-02|   -9.363790|   -8.831347|   -0.000280|    0.003143|  5.0000e+02|   -3.956034|
|         443|  3.1066e-02|   -9.366701|   -8.834244|   -0.000283|    0.003141|  5.0000e+02|   -3.958945|
|         444|  3.1066e-02|   -9.369606|   -8.837134|   -0.000285|    0.003139|  5.0000e+02|   -3.961851|
|         445|  3.1065e-02|   -9.372508|   -8.840020|   -0.000288|    0.003137|  5.0000e+02|   -3.964752|
|         446|  3.1064e-02|   -9.375406|   -8.842903|   -0.000291|    0.003135|  5.0000e+02|   -3.967651|
|         447|  3.1063e-02|   -9.378304|   -8.845786|   -0.000293|    0.003133|  5.0000e+02|   -3.970548|
|         448|  3.1063e-02|   -9.381202|   -8.848669|   -0.000296|    0.003131|  5.0000e+02|   -3.973447|
|         449|  3.1062e-02|   -9.384103|   -8.851555|   -0.000298|    0.003129|  5.0000e+02|   -3.976347|
|         450|  3.1060e-02|   -9.387007|   -8.854444|   -0.000301|    0.003127|  5.0000e+02|   -3.979251|
|         451|  3.1060e-02|   -9.389915|   -8.857338|   -0.000304|    0.003125|  5.0000e+02|   -3.982159|
|         452|  3.1060e-02|   -9.392828|   -8.860237|   -0.000306|    0.003123|  5.0000e+02|   -3.985072|
|         453|  3.1059e-02|   -9.395745|   -8.863142|   -0.000309|    0.003121|  5.0000e+02|   -3.987990|
|         454|  3.1058e-02|   -9.398667|   -8.866050|   -0.000311|    0.003119|  5.0000e+02|   -3.990911|
|         455|  3.1057e-02|   -9.401592|   -8.868962|   -0.000314|    0.003117|  5.0000e+02|   -3.993836|
|         456|  3.1081e-02|   -9.404519|   -8.871877|   -0.000316|    0.003115|  5.0000e+02|   -3.996763|
|         457|  3.1080e-02|   -9.407446|   -8.874792|   -0.000319|    0.003113|  5.0000e+02|   -3.999690|
|         458|  3.1079e-02|   -9.410373|   -8.877706|   -0.000321|    0.003111|  5.0000e+02|   -4.002617|
|         459|  3.1078e-02|   -9.413298|   -8.880619|   -0.000324|    0.003109|  5.0000e+02|   -4.005542|
|         460|  3.1077e-02|   -9.416219|   -8.883527|   -0.000326|    0.003107|  5.0000e+02|   -4.008464|
|         461|  3.1076e-02|   -9.419137|   -8.886432|   -0.000328|    0.003105|  5.0000e+02|   -4.011381|
|         462|  3.1075e-02|   -9.422050|   -8.889332|   -0.000331|    0.003103|  5.0000e+02|   -4.014294|
|         463|  3.1075e-02|   -9.424958|   -8.892227|   -0.000333|    0.003101|  5.0000e+02|   -4.017203|
|         464|  3.1074e-02|   -9.427862|   -8.895118|   -0.000336|    0.003100|  5.0000e+02|   -4.020107|
|         465|  3.1075e-02|   -9.430763|   -8.898005|   -0.000338|    0.003098|  5.0000e+02|   -4.023008|
|         466|  3.1074e-02|   -9.433662|   -8.900889|   -0.000340|    0.003096|  5.0000e+02|   -4.025906|
|         467|  3.1073e-02|   -9.436559|   -8.903772|   -0.000343|    0.003094|  5.0000e+02|   -4.028803|
|         468|  3.1073e-02|   -9.439457|   -8.906656|   -0.000345|    0.003092|  5.0000e+02|   -4.031701|
|         469|  3.1072e-02|   -9.442355|   -8.909541|   -0.000348|    0.003091|  5.0000e+02|   -4.034600|
|         470|  3.1087e-02|   -9.445257|   -8.912429|   -0.000350|    0.003089|  5.0000e+02|   -4.037501|
|         471|  3.1086e-02|   -9.448162|   -8.915321|   -0.000352|    0.003087|  5.0000e+02|   -4.040407|
|         472|  3.1085e-02|   -9.451072|   -8.918217|   -0.000354|    0.003085|  5.0000e+02|   -4.043316|
|         473|  3.1084e-02|   -9.453985|   -8.921119|   -0.000357|    0.003084|  5.0000e+02|   -4.046230|
|         474|  3.1083e-02|   -9.456904|   -8.924024|   -0.000359|    0.003082|  5.0000e+02|   -4.049148|
|         475|  3.1083e-02|   -9.459826|   -8.926935|   -0.000361|    0.003080|  5.0000e+02|   -4.052070|
|         476|  3.1082e-02|   -9.462752|   -8.929848|   -0.000364|    0.003079|  5.0000e+02|   -4.054996|
|         477|  3.1081e-02|   -9.465679|   -8.932764|   -0.000366|    0.003077|  5.0000e+02|   -4.057924|
|         478|  3.1081e-02|   -9.468609|   -8.935681|   -0.000368|    0.003075|  5.0000e+02|   -4.060853|
|         479|  3.1080e-02|   -9.471538|   -8.938599|   -0.000370|    0.003074|  5.0000e+02|   -4.063782|
|         480|  3.1080e-02|   -9.474466|   -8.941515|   -0.000372|    0.003072|  5.0000e+02|   -4.066710|
|         481|  3.1079e-02|   -9.477392|   -8.944429|   -0.000375|    0.003070|  5.0000e+02|   -4.069637|
|         482|  3.1078e-02|   -9.480316|   -8.947341|   -0.000377|    0.003069|  5.0000e+02|   -4.072560|
|         483|  3.1077e-02|   -9.483237|   -8.950250|   -0.000379|    0.003067|  5.0000e+02|   -4.075481|
|         484|  3.1076e-02|   -9.486155|   -8.953155|   -0.000381|    0.003065|  5.0000e+02|   -4.078399|
|         485|  3.1075e-02|   -9.489070|   -8.956058|   -0.000383|    0.003064|  5.0000e+02|   -4.081315|
|         486|  3.1074e-02|   -9.491984|   -8.958958|   -0.000385|    0.003062|  5.0000e+02|   -4.084228|
|         487|  3.1073e-02|   -9.494896|   -8.961858|   -0.000388|    0.003061|  5.0000e+02|   -4.087140|
|         488|  3.1073e-02|   -9.497808|   -8.964757|   -0.000390|    0.003059|  5.0000e+02|   -4.090052|
|         489|  3.1072e-02|   -9.500721|   -8.967656|   -0.000392|    0.003058|  5.0000e+02|   -4.092965|
|         490|  3.1071e-02|   -9.503635|   -8.970558|   -0.000394|    0.003056|  5.0000e+02|   -4.095880|
|         491|  3.1070e-02|   -9.506553|   -8.973463|   -0.000396|    0.003055|  5.0000e+02|   -4.098797|
|         492|  3.1070e-02|   -9.509473|   -8.976371|   -0.000398|    0.003053|  5.0000e+02|   -4.101718|
|         493|  3.1069e-02|   -9.512398|   -8.979283|   -0.000400|    0.003052|  5.0000e+02|   -4.104642|
|         494|  3.1068e-02|   -9.515327|   -8.982200|   -0.000402|    0.003050|  5.0000e+02|   -4.107571|
|         495|  3.1068e-02|   -9.518259|   -8.985121|   -0.000404|    0.003049|  5.0000e+02|   -4.110504|
|         496|  3.1067e-02|   -9.521196|   -8.988046|   -0.000406|    0.003047|  5.0000e+02|   -4.113440|
|         497|  3.1066e-02|   -9.524135|   -8.990973|   -0.000408|    0.003046|  5.0000e+02|   -4.116379|
|         498|  3.1072e-02|   -9.527077|   -8.993904|   -0.000410|    0.003044|  5.0000e+02|   -4.119321|
|         499|  3.1074e-02|   -9.530020|   -8.996836|   -0.000412|    0.003043|  5.0000e+02|   -4.122264|
|         500|  3.1079e-02|   -9.532964|   -8.999768|   -0.000414|    0.003042|  5.0000e+02|   -4.125208|
+-----------------------------------------------------------------------+
|        File Writing Summary       |              Filename             |
+-----------------------------------------------------------------------+
|SU2 restart                        |restart.dat                        |
|                                   |                     (704.599 MB/s)|
|Paraview                           |vol_solution.vtu                   |
|                                   |                     (586.181 MB/s)|
|Paraview surface                   |surface.vtu                        |
|                                   |                     (25.0091 MB/s)|
+-----------------------------------------------------------------------+

Writing the forces breakdown file (forces_breakdown.dat).
+-------------------------------------------------------------------------------------------------------+
|  Inner_Iter|   Time(sec)|    rms[Rho]|   rms[RhoE]|          CL|          CD|     Avg CFL| relrms[Rho]|
+-------------------------------------------------------------------------------------------------------+
|         501|  3.1144e-02|   -9.535907|   -9.002700|   -0.000416|    0.003040|  5.0000e+02|   -4.128152|
|         502|  3.1144e-02|   -9.538850|   -9.005631|   -0.000418|    0.003039|  5.0000e+02|   -4.131094|
|         503|  3.1143e-02|   -9.541791|   -9.008561|   -0.000420|    0.003037|  5.0000e+02|   -4.134035|
|         504|  3.1142e-02|   -9.544730|   -9.011488|   -0.000422|    0.003036|  5.0000e+02|   -4.136974|
|         505|  3.1141e-02|   -9.547667|   -9.014414|   -0.000424|    0.003035|  5.0000e+02|   -4.139912|
|         506|  3.1140e-02|   -9.550603|   -9.017338|   -0.000426|    0.003033|  5.0000e+02|   -4.142848|
|         507|  3.1139e-02|   -9.553538|   -9.020261|   -0.000428|    0.003032|  5.0000e+02|   -4.145783|
|         508|  3.1138e-02|   -9.556473|   -9.023183|   -0.000430|    0.003031|  5.0000e+02|   -4.148717|
|         509|  3.1137e-02|   -9.559408|   -9.026105|   -0.000432|    0.003029|  5.0000e+02|   -4.151652|
|         510|  3.1136e-02|   -9.562343|   -9.029029|   -0.000434|    0.003028|  5.0000e+02|   -4.154588|
|         511|  3.1135e-02|   -9.565281|   -9.031955|   -0.000435|    0.003027|  5.0000e+02|   -4.157526|
|         512|  3.1135e-02|   -9.568222|   -9.034883|   -0.000437|    0.003025|  5.0000e+02|   -4.160466|
|         513|  3.1134e-02|   -9.571165|   -9.037815|   -0.000439|    0.003024|  5.0000e+02|   -4.163409|
|         514|  3.1133e-02|   -9.574112|   -9.040750|   -0.000441|    0.003023|  5.0000e+02|   -4.166356|
|         515|  3.1132e-02|   -9.577063|   -9.043690|   -0.000443|    0.003021|  5.0000e+02|   -4.169307|
|         516|  3.1131e-02|   -9.580017|   -9.046633|   -0.000445|    0.003020|  5.0000e+02|   -4.172261|
|         517|  3.1130e-02|   -9.582974|   -9.049579|   -0.000446|    0.003019|  5.0000e+02|   -4.175219|
|         518|  3.1129e-02|   -9.585934|   -9.052528|   -0.000448|    0.003018|  5.0000e+02|   -4.178179|
|         519|  3.1128e-02|   -9.588897|   -9.055480|   -0.000450|    0.003017|  5.0000e+02|   -4.181141|
|         520|  3.1128e-02|   -9.591861|   -9.058433|   -0.000452|    0.003015|  5.0000e+02|   -4.184105|
|         521|  3.1127e-02|   -9.594825|   -9.061387|   -0.000454|    0.003014|  5.0000e+02|   -4.187070|
|         522|  3.1126e-02|   -9.597790|   -9.064340|   -0.000455|    0.003013|  5.0000e+02|   -4.190034|
|         523|  3.1125e-02|   -9.600754|   -9.067294|   -0.000457|    0.003012|  5.0000e+02|   -4.192999|
|         524|  3.1124e-02|   -9.603718|   -9.070246|   -0.000459|    0.003010|  5.0000e+02|   -4.195962|
|         525|  3.1123e-02|   -9.606680|   -9.073198|   -0.000461|    0.003009|  5.0000e+02|   -4.198925|
|         526|  3.1122e-02|   -9.609642|   -9.076148|   -0.000462|    0.003008|  5.0000e+02|   -4.201886|
|         527|  3.1121e-02|   -9.612602|   -9.079097|   -0.000464|    0.003007|  5.0000e+02|   -4.204847|
|         528|  3.1121e-02|   -9.615563|   -9.082046|   -0.000466|    0.003006|  5.0000e+02|   -4.207807|
|         529|  3.1121e-02|   -9.618523|   -9.084995|   -0.000467|    0.003005|  5.0000e+02|   -4.210767|
|         530|  3.1120e-02|   -9.621484|   -9.087945|   -0.000469|    0.003004|  5.0000e+02|   -4.213728|
|         531|  3.1119e-02|   -9.624446|   -9.090895|   -0.000471|    0.003002|  5.0000e+02|   -4.216690|
|         532|  3.1118e-02|   -9.627410|   -9.093848|   -0.000473|    0.003001|  5.0000e+02|   -4.219654|
|         533|  3.1117e-02|   -9.630376|   -9.096803|   -0.000474|    0.003000|  5.0000e+02|   -4.222620|
|         534|  3.1117e-02|   -9.633345|   -9.099762|   -0.000476|    0.002999|  5.0000e+02|   -4.225590|
|         535|  3.1116e-02|   -9.636317|   -9.102723|   -0.000477|    0.002998|  5.0000e+02|   -4.228562|
|         536|  3.1115e-02|   -9.639293|   -9.105688|   -0.000479|    0.002997|  5.0000e+02|   -4.231537|
|         537|  3.1114e-02|   -9.642271|   -9.108656|   -0.000481|    0.002996|  5.0000e+02|   -4.234516|
|         538|  3.1113e-02|   -9.645253|   -9.111627|   -0.000482|    0.002995|  5.0000e+02|   -4.237497|
|         539|  3.1112e-02|   -9.648237|   -9.114600|   -0.000484|    0.002994|  5.0000e+02|   -4.240481|
|         540|  3.1112e-02|   -9.651222|   -9.117576|   -0.000486|    0.002993|  5.0000e+02|   -4.243467|
|         541|  3.1111e-02|   -9.654210|   -9.120553|   -0.000487|    0.002992|  5.0000e+02|   -4.246454|
|         542|  3.1111e-02|   -9.657198|   -9.123531|   -0.000489|    0.002991|  5.0000e+02|   -4.249442|
|         543|  3.1110e-02|   -9.660186|   -9.126510|   -0.000490|    0.002990|  5.0000e+02|   -4.252431|
|         544|  3.1109e-02|   -9.663175|   -9.129488|   -0.000492|    0.002989|  5.0000e+02|   -4.255419|
|         545|  3.1108e-02|   -9.666163|   -9.132466|   -0.000493|    0.002988|  5.0000e+02|   -4.258407|
|         546|  3.1107e-02|   -9.669151|   -9.135443|   -0.000495|    0.002987|  5.0000e+02|   -4.261395|
|         547|  3.1106e-02|   -9.672138|   -9.138420|   -0.000496|    0.002986|  5.0000e+02|   -4.264382|
|         548|  3.1106e-02|   -9.675125|   -9.141397|   -0.000498|    0.002985|  5.0000e+02|   -4.267369|
|         549|  3.1105e-02|   -9.678111|   -9.144373|   -0.000500|    0.002984|  5.0000e+02|   -4.270356|
|         550|  3.1104e-02|   -9.681099|   -9.147350|   -0.000501|    0.002983|  5.0000e+02|   -4.273343|
|         551|  3.1103e-02|   -9.684086|   -9.150327|   -0.000503|    0.002982|  5.0000e+02|   -4.276331|
|         552|  3.1103e-02|   -9.687076|   -9.153306|   -0.000504|    0.002981|  5.0000e+02|   -4.279320|
|         553|  3.1102e-02|   -9.690067|   -9.156287|   -0.000506|    0.002980|  5.0000e+02|   -4.282311|
|         554|  3.1101e-02|   -9.693060|   -9.159270|   -0.000507|    0.002979|  5.0000e+02|   -4.285304|
|         555|  3.1100e-02|   -9.696055|   -9.162256|   -0.000508|    0.002978|  5.0000e+02|   -4.288300|
|         556|  3.1100e-02|   -9.699054|   -9.165244|   -0.000510|    0.002977|  5.0000e+02|   -4.291298|
|         557|  3.1099e-02|   -9.702055|   -9.168235|   -0.000511|    0.002976|  5.0000e+02|   -4.294299|
|         558|  3.1099e-02|   -9.705058|   -9.171229|   -0.000513|    0.002975|  5.0000e+02|   -4.297303|
|         559|  3.1098e-02|   -9.708064|   -9.174226|   -0.000514|    0.002974|  5.0000e+02|   -4.300309|
|         560|  3.1097e-02|   -9.711073|   -9.177225|   -0.000516|    0.002973|  5.0000e+02|   -4.303317|
|         561|  3.1096e-02|   -9.714083|   -9.180226|   -0.000517|    0.002972|  5.0000e+02|   -4.306327|
|         562|  3.1097e-02|   -9.717094|   -9.183228|   -0.000519|    0.002971|  5.0000e+02|   -4.309339|
|         563|  3.1096e-02|   -9.720107|   -9.186232|   -0.000520|    0.002971|  5.0000e+02|   -4.312351|
|         564|  3.1095e-02|   -9.723119|   -9.189236|   -0.000521|    0.002970|  5.0000e+02|   -4.315364|
|         565|  3.1095e-02|   -9.726133|   -9.192240|   -0.000523|    0.002969|  5.0000e+02|   -4.318377|
|         566|  3.1095e-02|   -9.729146|   -9.195244|   -0.000524|    0.002968|  5.0000e+02|   -4.321390|
|         567|  3.1095e-02|   -9.732158|   -9.198247|   -0.000525|    0.002967|  5.0000e+02|   -4.324403|
|         568|  3.1094e-02|   -9.735171|   -9.201251|   -0.000527|    0.002966|  5.0000e+02|   -4.327416|
|         569|  3.1093e-02|   -9.738184|   -9.204255|   -0.000528|    0.002965|  5.0000e+02|   -4.330428|
|         570|  3.1093e-02|   -9.741197|   -9.207259|   -0.000530|    0.002965|  5.0000e+02|   -4.333441|
|         571|  3.1093e-02|   -9.744210|   -9.210263|   -0.000531|    0.002964|  5.0000e+02|   -4.336455|
|         572|  3.1092e-02|   -9.747225|   -9.213268|   -0.000532|    0.002963|  5.0000e+02|   -4.339469|
|         573|  3.1091e-02|   -9.750240|   -9.216275|   -0.000534|    0.002962|  5.0000e+02|   -4.342485|
|         574|  3.1091e-02|   -9.753258|   -9.219283|   -0.000535|    0.002961|  5.0000e+02|   -4.345502|
|         575|  3.1091e-02|   -9.756277|   -9.222294|   -0.000536|    0.002960|  5.0000e+02|   -4.348521|
|         576|  3.1090e-02|   -9.759298|   -9.225307|   -0.000537|    0.002960|  5.0000e+02|   -4.351543|
|         577|  3.1089e-02|   -9.762322|   -9.228322|   -0.000539|    0.002959|  5.0000e+02|   -4.354566|
|         578|  3.1089e-02|   -9.765348|   -9.231340|   -0.000540|    0.002958|  5.0000e+02|   -4.357592|
|         579|  3.1089e-02|   -9.768376|   -9.234360|   -0.000541|    0.002957|  5.0000e+02|   -4.360621|
|         580|  3.1089e-02|   -9.771407|   -9.237383|   -0.000543|    0.002956|  5.0000e+02|   -4.363651|
|         581|  3.1089e-02|   -9.774439|   -9.240407|   -0.000544|    0.002956|  5.0000e+02|   -4.366684|
|         582|  3.1089e-02|   -9.777473|   -9.243434|   -0.000545|    0.002955|  5.0000e+02|   -4.369718|
|         583|  3.1088e-02|   -9.780509|   -9.246461|   -0.000546|    0.002954|  5.0000e+02|   -4.372753|
|         584|  3.1087e-02|   -9.783545|   -9.249490|   -0.000548|    0.002953|  5.0000e+02|   -4.375789|
|         585|  3.1087e-02|   -9.786582|   -9.252519|   -0.000549|    0.002953|  5.0000e+02|   -4.378826|
|         586|  3.1087e-02|   -9.789619|   -9.255549|   -0.000550|    0.002952|  5.0000e+02|   -4.381863|
|         587|  3.1086e-02|   -9.792656|   -9.258579|   -0.000551|    0.002951|  5.0000e+02|   -4.384901|
|         588|  3.1085e-02|   -9.795694|   -9.261609|   -0.000553|    0.002950|  5.0000e+02|   -4.387938|
|         589|  3.1085e-02|   -9.798731|   -9.264639|   -0.000554|    0.002950|  5.0000e+02|   -4.390976|
|         590|  3.1084e-02|   -9.801769|   -9.267670|   -0.000555|    0.002949|  5.0000e+02|   -4.394013|
|         591|  3.1084e-02|   -9.804807|   -9.270700|   -0.000556|    0.002948|  5.0000e+02|   -4.397051|
|         592|  3.1083e-02|   -9.807846|   -9.273732|   -0.000557|    0.002948|  5.0000e+02|   -4.400090|
|         593|  3.1082e-02|   -9.810885|   -9.276764|   -0.000558|    0.002947|  5.0000e+02|   -4.403130|
|         594|  3.1083e-02|   -9.813926|   -9.279798|   -0.000560|    0.002946|  5.0000e+02|   -4.406170|
|         595|  3.1082e-02|   -9.816968|   -9.282834|   -0.000561|    0.002945|  5.0000e+02|   -4.409213|
|         596|  3.1081e-02|   -9.820012|   -9.285871|   -0.000562|    0.002945|  5.0000e+02|   -4.412257|
|         597|  3.1081e-02|   -9.823058|   -9.288910|   -0.000563|    0.002944|  5.0000e+02|   -4.415303|
|         598|  3.1081e-02|   -9.826106|   -9.291952|   -0.000564|    0.002943|  5.0000e+02|   -4.418350|
|         599|  3.1080e-02|   -9.829156|   -9.294995|   -0.000565|    0.002943|  5.0000e+02|   -4.421400|
|         600|  3.1079e-02|   -9.832208|   -9.298041|   -0.000567|    0.002942|  5.0000e+02|   -4.424452|
|         601|  3.1079e-02|   -9.835262|   -9.301089|   -0.000568|    0.002941|  5.0000e+02|   -4.427506|
|         602|  3.1079e-02|   -9.838317|   -9.304139|   -0.000569|    0.002941|  5.0000e+02|   -4.430562|
|         603|  3.1078e-02|   -9.841374|   -9.307190|   -0.000570|    0.002940|  5.0000e+02|   -4.433618|
|         604|  3.1077e-02|   -9.844432|   -9.310243|   -0.000571|    0.002939|  5.0000e+02|   -4.436676|
|         605|  3.1077e-02|   -9.847491|   -9.313296|   -0.000572|    0.002939|  5.0000e+02|   -4.439735|
|         606|  3.1077e-02|   -9.850550|   -9.316350|   -0.000573|    0.002938|  5.0000e+02|   -4.442795|
|         607|  3.1093e-02|   -9.853610|   -9.319405|   -0.000574|    0.002937|  5.0000e+02|   -4.445855|
|         608|  3.1097e-02|   -9.856670|   -9.322460|   -0.000575|    0.002937|  5.0000e+02|   -4.448915|
|         609|  3.1096e-02|   -9.859731|   -9.325516|   -0.000576|    0.002936|  5.0000e+02|   -4.451975|
|         610|  3.1096e-02|   -9.862791|   -9.328571|   -0.000578|    0.002936|  5.0000e+02|   -4.455036|
|         611|  3.1096e-02|   -9.865852|   -9.331628|   -0.000579|    0.002935|  5.0000e+02|   -4.458097|
|         612|  3.1095e-02|   -9.868914|   -9.334684|   -0.000580|    0.002934|  5.0000e+02|   -4.461158|
[...]
|        3056|  3.1030e-02|  -12.854947|  -13.481454|   -0.000741|    0.002855|  5.0000e+02|   -7.447192|
|        3057|  3.1030e-02|  -12.855909|  -13.482803|   -0.000741|    0.002855|  5.0000e+02|   -7.448153|
|        3058|  3.1030e-02|  -12.856818|  -13.485797|   -0.000741|    0.002855|  5.0000e+02|   -7.449063|
|        3059|  3.1030e-02|  -12.857690|  -13.487795|   -0.000741|    0.002855|  5.0000e+02|   -7.449935|
|        3060|  3.1030e-02|  -12.858573|  -13.496276|   -0.000741|    0.002855|  5.0000e+02|   -7.450818|
|        3061|  3.1030e-02|  -12.859514|  -13.485463|   -0.000741|    0.002855|  5.0000e+02|   -7.451759|
|        3062|  3.1030e-02|  -12.860476|  -13.482769|   -0.000741|    0.002855|  5.0000e+02|   -7.452720|
|        3063|  3.1030e-02|  -12.861315|  -13.502462|   -0.000741|    0.002855|  5.0000e+02|   -7.453559|
|        3064|  3.1030e-02|  -12.862195|  -13.500290|   -0.000741|    0.002855|  5.0000e+02|   -7.454439|
|        3065|  3.1030e-02|  -12.863148|  -13.490030|   -0.000741|    0.002855|  5.0000e+02|   -7.455392|
|        3066|  3.1030e-02|  -12.864100|  -13.490528|   -0.000741|    0.002855|  5.0000e+02|   -7.456345|
|        3067|  3.1030e-02|  -12.865003|  -13.495416|   -0.000741|    0.002855|  5.0000e+02|   -7.457248|
|        3068|  3.1030e-02|  -12.865876|  -13.495441|   -0.000741|    0.002855|  5.0000e+02|   -7.458120|
|        3069|  3.1030e-02|  -12.866762|  -13.504884|   -0.000741|    0.002855|  5.0000e+02|   -7.459006|
|        3070|  3.1034e-02|  -12.867705|  -13.490373|   -0.000741|    0.002855|  5.0000e+02|   -7.459950|
|        3071|  3.1037e-02|  -12.868681|  -13.487379|   -0.000741|    0.002855|  5.0000e+02|   -7.460925|
|        3072|  3.1041e-02|  -12.869515|  -13.510083|   -0.000741|    0.002855|  5.0000e+02|   -7.461759|
|        3073|  3.1048e-02|  -12.870378|  -13.511546|   -0.000741|    0.002855|  5.0000e+02|   -7.462623|
|        3074|  3.1051e-02|  -12.871317|  -13.499131|   -0.000741|    0.002855|  5.0000e+02|   -7.463561|
|        3075|  3.1055e-02|  -12.872297|  -13.500241|   -0.000741|    0.002855|  5.0000e+02|   -7.464541|
|        3076|  3.1058e-02|  -12.873202|  -13.502891|   -0.000741|    0.002855|  5.0000e+02|   -7.465447|
|        3077|  3.1061e-02|  -12.874077|  -13.502833|   -0.000741|    0.002855|  5.0000e+02|   -7.466321|
|        3078|  3.1064e-02|  -12.874956|  -13.515553|   -0.000741|    0.002855|  5.0000e+02|   -7.467200|
|        3079|  3.1064e-02|  -12.875885|  -13.502025|   -0.000741|    0.002855|  5.0000e+02|   -7.468130|
|        3080|  3.1064e-02|  -12.876868|  -13.497728|   -0.000741|    0.002855|  5.0000e+02|   -7.469112|
|        3081|  3.1064e-02|  -12.877716|  -13.519018|   -0.000741|    0.002855|  5.0000e+02|   -7.469961|
|        3082|  3.1064e-02|  -12.878573|  -13.522081|   -0.000741|    0.002855|  5.0000e+02|   -7.470818|
|        3083|  3.1064e-02|  -12.879510|  -13.510160|   -0.000741|    0.002855|  5.0000e+02|   -7.471754|
|        3084|  3.1068e-02|  -12.880488|  -13.511149|   -0.000741|    0.002855|  5.0000e+02|   -7.472732|
|        3085|  3.1072e-02|  -12.881392|  -13.512692|   -0.000741|    0.002855|  5.0000e+02|   -7.473636|
|        3086|  3.1076e-02|  -12.882276|  -13.511469|   -0.000741|    0.002855|  5.0000e+02|   -7.474520|
|        3087|  3.1081e-02|  -12.883156|  -13.524855|   -0.000741|    0.002855|  5.0000e+02|   -7.475401|
|        3088|  3.1085e-02|  -12.884079|  -13.512764|   -0.000741|    0.002855|  5.0000e+02|   -7.476323|
|        3089|  3.1087e-02|  -12.885060|  -13.507102|   -0.000741|    0.002855|  5.0000e+02|   -7.477304|
|        3090|  3.1088e-02|  -12.885926|  -13.526471|   -0.000741|    0.002855|  5.0000e+02|   -7.478170|
|        3091|  3.1089e-02|  -12.886777|  -13.532674|   -0.000741|    0.002855|  5.0000e+02|   -7.479021|
|        3092|  3.1090e-02|  -12.887705|  -13.520731|   -0.000741|    0.002855|  5.0000e+02|   -7.479949|
|        3093|  3.1090e-02|  -12.888684|  -13.522178|   -0.000741|    0.002855|  5.0000e+02|   -7.480928|
|        3094|  3.1091e-02|  -12.889585|  -13.522573|   -0.000741|    0.002855|  5.0000e+02|   -7.481829|
|        3095|  3.1091e-02|  -12.890482|  -13.519988|   -0.000741|    0.002855|  5.0000e+02|   -7.482726|
|        3096|  3.1092e-02|  -12.891363|  -13.533177|   -0.000741|    0.002855|  5.0000e+02|   -7.483608|
|        3097|  3.1092e-02|  -12.892277|  -13.523809|   -0.000741|    0.002855|  5.0000e+02|   -7.484522|
|        3098|  3.1092e-02|  -12.893254|  -13.516994|   -0.000741|    0.002855|  5.0000e+02|   -7.485498|
|        3099|  3.1092e-02|  -12.894140|  -13.534031|   -0.000741|    0.002855|  5.0000e+02|   -7.486384|
|        3100|  3.1092e-02|  -12.894985|  -13.542924|   -0.000741|    0.002855|  5.0000e+02|   -7.487229|
|        3101|  3.1092e-02|  -12.895907|  -13.531189|   -0.000741|    0.002855|  5.0000e+02|   -7.488152|
|        3102|  3.1092e-02|  -12.896882|  -13.533260|   -0.000741|    0.002855|  5.0000e+02|   -7.489127|
|        3103|  3.1092e-02|  -12.897783|  -13.532884|   -0.000741|    0.002855|  5.0000e+02|   -7.490027|
|        3104|  3.1092e-02|  -12.898691|  -13.529114|   -0.000741|    0.002855|  5.0000e+02|   -7.490935|
|        3105|  3.1092e-02|  -12.899574|  -13.541765|   -0.000741|    0.002855|  5.0000e+02|   -7.491818|
|        3106|  3.1092e-02|  -12.900479|  -13.536170|   -0.000741|    0.002855|  5.0000e+02|   -7.492724|
|        3107|  3.1092e-02|  -12.901446|  -13.528111|   -0.000741|    0.002855|  5.0000e+02|   -7.493691|
|        3108|  3.1092e-02|  -12.902351|  -13.542328|   -0.000741|    0.002855|  5.0000e+02|   -7.494595|
|        3109|  3.1092e-02|  -12.903198|  -13.552617|   -0.000741|    0.002855|  5.0000e+02|   -7.495442|
|        3110|  3.1092e-02|  -12.904117|  -13.541262|   -0.000741|    0.002855|  5.0000e+02|   -7.496362|
|        3111|  3.1091e-02|  -12.905086|  -13.543668|   -0.000741|    0.002855|  5.0000e+02|   -7.497330|
|        3112|  3.1091e-02|  -12.905986|  -13.543923|   -0.000741|    0.002855|  5.0000e+02|   -7.498231|
|        3113|  3.1091e-02|  -12.906899|  -13.539057|   -0.000741|    0.002855|  5.0000e+02|   -7.499144|
|        3114|  3.1091e-02|  -12.907788|  -13.550551|   -0.000741|    0.002855|  5.0000e+02|   -7.500032|
|        3115|  3.1091e-02|  -12.908689|  -13.548170|   -0.000741|    0.002855|  5.0000e+02|   -7.500933|
|        3116|  3.1095e-02|  -12.909646|  -13.539287|   -0.000741|    0.002855|  5.0000e+02|   -7.501890|
|        3117|  3.1096e-02|  -12.910562|  -13.550907|   -0.000741|    0.002855|  5.0000e+02|   -7.502806|
|        3118|  3.1096e-02|  -12.911413|  -13.562404|   -0.000741|    0.002855|  5.0000e+02|   -7.503657|
|        3119|  3.1097e-02|  -12.912330|  -13.550787|   -0.000741|    0.002855|  5.0000e+02|   -7.504575|
|        3120|  3.1098e-02|  -12.913296|  -13.553251|   -0.000741|    0.002855|  5.0000e+02|   -7.505540|
|        3121|  3.1103e-02|  -12.914196|  -13.554826|   -0.000741|    0.002855|  5.0000e+02|   -7.506440|
|        3122|  3.1104e-02|  -12.915110|  -13.549069|   -0.000741|    0.002855|  5.0000e+02|   -7.507354|
|        3123|  3.1106e-02|  -12.916004|  -13.559406|   -0.000741|    0.002855|  5.0000e+02|   -7.508249|
|        3124|  3.1111e-02|  -12.916903|  -13.559497|   -0.000741|    0.002855|  5.0000e+02|   -7.509147|
|        3125|  3.1115e-02|  -12.917852|  -13.550187|   -0.000741|    0.002855|  5.0000e+02|   -7.510096|
|        3126|  3.1119e-02|  -12.918773|  -13.559758|   -0.000741|    0.002855|  5.0000e+02|   -7.511018|
|        3127|  3.1124e-02|  -12.919629|  -13.572186|   -0.000741|    0.002855|  5.0000e+02|   -7.511873|
|        3128|  3.1128e-02|  -12.920546|  -13.560097|   -0.000741|    0.002855|  5.0000e+02|   -7.512791|
|        3129|  3.1131e-02|  -12.921511|  -13.562475|   -0.000741|    0.002855|  5.0000e+02|   -7.513755|
|        3130|  3.1134e-02|  -12.922410|  -13.565636|   -0.000741|    0.002855|  5.0000e+02|   -7.514654|
|        3131|  3.1137e-02|  -12.923323|  -13.559042|   -0.000741|    0.002855|  5.0000e+02|   -7.515568|
|        3132|  3.1141e-02|  -12.924224|  -13.568397|   -0.000741|    0.002855|  5.0000e+02|   -7.516469|
|        3133|  3.1145e-02|  -12.925122|  -13.570221|   -0.000741|    0.002855|  5.0000e+02|   -7.517366|
|        3134|  3.1147e-02|  -12.926064|  -13.560745|   -0.000741|    0.002855|  5.0000e+02|   -7.518308|
|        3135|  3.1150e-02|  -12.926987|  -13.568863|   -0.000741|    0.002855|  5.0000e+02|   -7.519232|
|        3136|  3.1151e-02|  -12.927848|  -13.581710|   -0.000741|    0.002855|  5.0000e+02|   -7.520092|
|        3137|  3.1151e-02|  -12.928766|  -13.569171|   -0.000741|    0.002855|  5.0000e+02|   -7.521011|
|        3138|  3.1151e-02|  -12.929731|  -13.571520|   -0.000741|    0.002855|  5.0000e+02|   -7.521975|
|        3139|  3.1151e-02|  -12.930627|  -13.576457|   -0.000741|    0.002855|  5.0000e+02|   -7.522872|
|        3140|  3.1151e-02|  -12.931539|  -13.568981|   -0.000741|    0.002855|  5.0000e+02|   -7.523783|
|        3141|  3.1151e-02|  -12.932447|  -13.577409|   -0.000741|    0.002855|  5.0000e+02|   -7.524692|
|        3142|  3.1151e-02|  -12.933345|  -13.580354|   -0.000741|    0.002855|  5.0000e+02|   -7.525589|
|        3143|  3.1151e-02|  -12.934281|  -13.570909|   -0.000741|    0.002855|  5.0000e+02|   -7.526526|
|        3144|  3.1151e-02|  -12.935204|  -13.578227|   -0.000741|    0.002855|  5.0000e+02|   -7.527449|
|        3145|  3.1151e-02|  -12.936070|  -13.590900|   -0.000741|    0.002855|  5.0000e+02|   -7.528315|
|        3146|  3.1151e-02|  -12.936990|  -13.578119|   -0.000741|    0.002855|  5.0000e+02|   -7.529235|
|        3147|  3.1151e-02|  -12.937954|  -13.580730|   -0.000741|    0.002855|  5.0000e+02|   -7.530198|
|        3148|  3.1151e-02|  -12.938847|  -13.587378|   -0.000741|    0.002855|  5.0000e+02|   -7.531092|
|        3149|  3.1151e-02|  -12.939757|  -13.579002|   -0.000741|    0.002855|  5.0000e+02|   -7.532002|
|        3150|  3.1151e-02|  -12.940674|  -13.586587|   -0.000741|    0.002855|  5.0000e+02|   -7.532918|
|        3151|  3.1150e-02|  -12.941571|  -13.590153|   -0.000741|    0.002855|  5.0000e+02|   -7.533816|
|        3152|  3.1150e-02|  -12.942504|  -13.580748|   -0.000741|    0.002855|  5.0000e+02|   -7.534748|
|        3153|  3.1150e-02|  -12.943425|  -13.587894|   -0.000741|    0.002855|  5.0000e+02|   -7.535669|
|        3154|  3.1150e-02|  -12.944297|  -13.599850|   -0.000741|    0.002855|  5.0000e+02|   -7.536541|
|        3155|  3.1150e-02|  -12.945219|  -13.587112|   -0.000741|    0.002855|  5.0000e+02|   -7.537463|
|        3156|  3.1150e-02|  -12.946179|  -13.590301|   -0.000741|    0.002855|  5.0000e+02|   -7.538424|
|        3157|  3.1150e-02|  -12.947069|  -13.598161|   -0.000741|    0.002855|  5.0000e+02|   -7.539314|
|        3158|  3.1150e-02|  -12.947979|  -13.588949|   -0.000741|    0.002855|  5.0000e+02|   -7.540224|
|        3159|  3.1150e-02|  -12.948903|  -13.595931|   -0.000741|    0.002855|  5.0000e+02|   -7.541147|
|        3160|  3.1150e-02|  -12.949801|  -13.599743|   -0.000741|    0.002855|  5.0000e+02|   -7.542045|
|        3161|  3.1151e-02|  -12.950731|  -13.590203|   -0.000741|    0.002855|  5.0000e+02|   -7.542975|
|        3162|  3.1150e-02|  -12.951650|  -13.597722|   -0.000741|    0.002855|  5.0000e+02|   -7.543894|
|        3163|  3.1150e-02|  -12.952527|  -13.608678|   -0.000741|    0.002855|  5.0000e+02|   -7.544771|
|        3164|  3.1150e-02|  -12.953451|  -13.596151|   -0.000741|    0.002855|  5.0000e+02|   -7.545695|
|        3165|  3.1150e-02|  -12.954408|  -13.600210|   -0.000741|    0.002855|  5.0000e+02|   -7.546652|
|        3166|  3.1150e-02|  -12.955294|  -13.608493|   -0.000741|    0.002855|  5.0000e+02|   -7.547539|
|        3167|  3.1150e-02|  -12.956206|  -13.598652|   -0.000741|    0.002855|  5.0000e+02|   -7.548450|
|        3168|  3.1150e-02|  -12.957134|  -13.605458|   -0.000741|    0.002855|  5.0000e+02|   -7.549379|
|        3169|  3.1150e-02|  -12.958033|  -13.609307|   -0.000741|    0.002855|  5.0000e+02|   -7.550277|
|        3170|  3.1150e-02|  -12.958961|  -13.599410|   -0.000741|    0.002855|  5.0000e+02|   -7.551206|
|        3171|  3.1150e-02|  -12.959880|  -13.607583|   -0.000741|    0.002855|  5.0000e+02|   -7.552124|
|        3172|  3.1150e-02|  -12.960759|  -13.617649|   -0.000741|    0.002855|  5.0000e+02|   -7.553004|
|        3173|  3.1150e-02|  -12.961685|  -13.605290|   -0.000741|    0.002855|  5.0000e+02|   -7.553929|
|        3174|  3.1149e-02|  -12.962638|  -13.610214|   -0.000741|    0.002855|  5.0000e+02|   -7.554883|
|        3175|  3.1149e-02|  -12.963523|  -13.618251|   -0.000741|    0.002855|  5.0000e+02|   -7.555768|
|        3176|  3.1149e-02|  -12.964437|  -13.607950|   -0.000741|    0.002855|  5.0000e+02|   -7.556682|
|        3177|  3.1149e-02|  -12.965368|  -13.615029|   -0.000741|    0.002855|  5.0000e+02|   -7.557612|
|        3178|  3.1149e-02|  -12.966266|  -13.618892|   -0.000741|    0.002855|  5.0000e+02|   -7.558511|
|        3179|  3.1149e-02|  -12.967194|  -13.608485|   -0.000741|    0.002855|  5.0000e+02|   -7.559439|
|        3180|  3.1149e-02|  -12.968114|  -13.617281|   -0.000741|    0.002855|  5.0000e+02|   -7.560358|
|        3181|  3.1149e-02|  -12.968995|  -13.626790|   -0.000741|    0.002855|  5.0000e+02|   -7.561239|
|        3182|  3.1149e-02|  -12.969921|  -13.614412|   -0.000741|    0.002855|  5.0000e+02|   -7.562165|
|        3183|  3.1149e-02|  -12.970872|  -13.620095|   -0.000741|    0.002855|  5.0000e+02|   -7.563116|
|        3184|  3.1149e-02|  -12.971757|  -13.627483|   -0.000741|    0.002855|  5.0000e+02|   -7.564002|
|        3185|  3.1149e-02|  -12.972674|  -13.616816|   -0.000741|    0.002855|  5.0000e+02|   -7.564918|
|        3186|  3.1149e-02|  -12.973604|  -13.624556|   -0.000741|    0.002855|  5.0000e+02|   -7.565848|
|        3187|  3.1148e-02|  -12.974501|  -13.628497|   -0.000741|    0.002855|  5.0000e+02|   -7.566745|
|        3188|  3.1148e-02|  -12.975430|  -13.617555|   -0.000741|    0.002855|  5.0000e+02|   -7.567675|
|        3189|  3.1148e-02|  -12.976352|  -13.626888|   -0.000741|    0.002855|  5.0000e+02|   -7.568596|
|        3190|  3.1148e-02|  -12.977233|  -13.636033|   -0.000741|    0.002855|  5.0000e+02|   -7.569477|
|        3191|  3.1148e-02|  -12.978159|  -13.623566|   -0.000741|    0.002855|  5.0000e+02|   -7.570403|
|        3192|  3.1148e-02|  -12.979108|  -13.629964|   -0.000741|    0.002855|  5.0000e+02|   -7.571353|
|        3193|  3.1148e-02|  -12.979995|  -13.636405|   -0.000741|    0.002855|  5.0000e+02|   -7.572239|
|        3194|  3.1148e-02|  -12.980914|  -13.625417|   -0.000741|    0.002855|  5.0000e+02|   -7.573158|
|        3195|  3.1148e-02|  -12.981842|  -13.634126|   -0.000741|    0.002855|  5.0000e+02|   -7.574086|
|        3196|  3.1149e-02|  -12.982738|  -13.638166|   -0.000741|    0.002855|  5.0000e+02|   -7.574982|
|        3197|  3.1150e-02|  -12.983668|  -13.626682|   -0.000741|    0.002855|  5.0000e+02|   -7.575913|
|        3198|  3.1150e-02|  -12.984593|  -13.636551|   -0.000741|    0.002855|  5.0000e+02|   -7.576837|
|        3199|  3.1150e-02|  -12.985473|  -13.645266|   -0.000741|    0.002855|  5.0000e+02|   -7.577718|
|        3200|  3.1151e-02|  -12.986399|  -13.632682|   -0.000741|    0.002855|  5.0000e+02|   -7.578644|
|        3201|  3.1151e-02|  -12.987347|  -13.639852|   -0.000741|    0.002855|  5.0000e+02|   -7.579592|
|        3202|  3.1151e-02|  -12.988236|  -13.645142|   -0.000741|    0.002855|  5.0000e+02|   -7.580480|
|        3203|  3.1152e-02|  -12.989157|  -13.633785|   -0.000741|    0.002855|  5.0000e+02|   -7.581401|
|        3204|  3.1153e-02|  -12.990083|  -13.643705|   -0.000741|    0.002855|  5.0000e+02|   -7.582327|
|        3205|  3.1155e-02|  -12.990977|  -13.647842|   -0.000741|    0.002855|  5.0000e+02|   -7.583221|
|        3206|  3.1155e-02|  -12.991909|  -13.635797|   -0.000741|    0.002855|  5.0000e+02|   -7.584153|
|        3207|  3.1155e-02|  -12.992837|  -13.646245|   -0.000741|    0.002855|  5.0000e+02|   -7.585082|
|        3208|  3.1155e-02|  -12.993716|  -13.654410|   -0.000741|    0.002855|  5.0000e+02|   -7.585961|
|        3209|  3.1155e-02|  -12.994642|  -13.641669|   -0.000741|    0.002855|  5.0000e+02|   -7.586887|
|        3210|  3.1155e-02|  -12.995589|  -13.649701|   -0.000741|    0.002855|  5.0000e+02|   -7.587833|
|        3211|  3.1155e-02|  -12.996479|  -13.653751|   -0.000741|    0.002855|  5.0000e+02|   -7.588723|
|        3212|  3.1155e-02|  -12.997403|  -13.641969|   -0.000741|    0.002855|  5.0000e+02|   -7.589647|
|        3213|  3.1155e-02|  -12.998326|  -13.653223|   -0.000741|    0.002855|  5.0000e+02|   -7.590570|
|        3214|  3.1156e-02|  -12.999218|  -13.657666|   -0.000741|    0.002855|  5.0000e+02|   -7.591462|
|        3215|  3.1156e-02|  -13.000151|  -13.645034|   -0.000741|    0.002855|  5.0000e+02|   -7.592396|

----------------------------- Solver Exit -------------------------------
All convergence criteria satisfied.
+-----------------------------------------------------------------------+
|      Convergence Field     |     Value    |   Criterion  |  Converged |
+-----------------------------------------------------------------------+
|                    rms[Rho]|      -13.0002|         < -13|         Yes|
+-----------------------------------------------------------------------+
-------------------------------------------------------------------------
+-----------------------------------------------------------------------+
|        File Writing Summary       |              Filename             |
+-----------------------------------------------------------------------+
|SU2 restart                        |restart.dat                        |
|                                   |                      (718.95 MB/s)|
|Paraview                           |vol_solution.vtu                   |
|                                   |                     (587.473 MB/s)|
|Paraview surface                   |surface.vtu                        |
|                                   |                     (25.0401 MB/s)|
+-----------------------------------------------------------------------+

Writing the forces breakdown file (forces_breakdown.dat).

------------------------- Solver Postprocessing -------------------------
Deleted CNumerics container.
Deleted CIntegration container.
Deleted CSolver container.
Deleted CIteration container.
Deleted CInterface container.
Deleted CGeometry container.
Deleted CFreeFormDefBox class.
Deleted CSurfaceMovement class.
Deleted CVolumetricMovement class.
Deleted CConfig container.
Deleted nInst container.
Deleted COutput class.
-------------------------------------------------------------------------


-------------------------- Performance Summary --------------------------
Simulation totals:
   Wall-clock time (hrs):   0.0278921 |            Core-hrs:    0.502058
                   Cores:          18 |          DOFs/point:           5
             Points/core:     2927.17 |   Ghost points/core:     220.444
 Ghost/Owned Point Ratio:   0.0753098 | 

Preprocessing phase:
       Preproc. Time (s):    0.177726 |   Preproc. Time (%):    0.176998

Compute phase:
        Compute Time (s):     100.202 |    Compute Time (%):     99.7912
         Iteration count:        3216 |         Avg. s/iter:   0.0311573
     Core-s/iter/Mpoints:     9.89872 |           Mpoints/s:     1.81842

Output phase:
         Output Time (s):   0.0319004 |     Output Time (%):   0.0317696
            Output count:           1 |       Avg. s/output:   0.0319004
 Restart Aggr. BW (MB/s):     9266.57 |           MB/s/core:      514.81
-------------------------------------------------------------------------


------------------------- Exit Success (SU2_CFD) ------------------------

Invalid MIT-MAGIC-COOKIE-1 key