running

-------------------------------------------------------------------------
|    ___ _   _ ___                                                      |
|   / __| | | |_  )   Release 7.0.8 "Blackbird"                         |
|   \__ \ |_| |/ /                                                      |
|   |___/\___//___|   Suite (Computational Fluid Dynamics Code)         |
|                                                                       |
-------------------------------------------------------------------------
| SU2 Project Website: https://su2code.github.io                        |
|                                                                       |
| The SU2 Project is maintained by the SU2 Foundation                   |
| (http://su2foundation.org)                                            |
-------------------------------------------------------------------------
| Copyright 2012-2020, SU2 Contributors                                 |
|                                                                       |
| SU2 is free software; you can redistribute it and/or                  |
| modify it under the terms of the GNU Lesser General Public            |
| License as published by the Free Software Foundation; either          |
| version 2.1 of the License, or (at your option) any later version.    |
|                                                                       |
| SU2 is distributed in the hope that it will be useful,                |
| but WITHOUT ANY WARRANTY; without even the implied warranty of        |
| MERCHANTABILITY or FITNESS FOR A PARTICULAR PURPOSE. See the GNU      |
| Lesser General Public License for more details.                       |
|                                                                       |
| You should have received a copy of the GNU Lesser General Public      |
| License along with SU2. If not, see <http://www.gnu.org/licenses/>.   |
-------------------------------------------------------------------------

Parsing config file for zone 0

----------------- Physical Case Definition ( Zone 0 ) -------------------
Compressible RANS equations.
Turbulence model: Spalart Allmaras
Hybrid RANS/LES: No Hybrid RANS/LES
Mach number: 0.2.
Angle of attack (AoA): 0 deg, and angle of sideslip (AoS): 0 deg.
Reynolds number: 5e+06. Reference length 1.
No restart solution, use the values at infinity (freestream).
Non-Dimensional simulation (P=1.0, Rho=1.0, T=1.0 at the farfield).
The reference area is 2 m^2.
The semi-span will be computed using the max y(3D) value.
The reference length is 1 m.
Reference origin for moment evaluation is (0, 0, 0).
Surface(s) where the force coefficients are evaluated: wall.

Surface(s) plotted in the output file: wall.
Input mesh file name: flatplate_turb_L5_35x25.su2

--------------- Space Numerical Integration ( Zone 0 ) ------------------
Roe (with entropy fix = 0.001) solver for the flow inviscid terms.
Standard Roe without low-dissipation function.
Second order integration in space, with slope limiter.
No slope-limiting method. 
Scalar upwind solver for the turbulence model.
First order integration in space.
Average of gradients with correction (viscous flow terms).
Average of gradients with correction (viscous turbulence terms).
Gradient for upwind reconstruction: Green-Gauss.
Gradient for viscous and source terms: Green-Gauss.

--------------- Time Numerical Integration  ( Zone 0 ) ------------------
Local time stepping (steady state simulation).
Euler implicit method for the flow equations.
FGMRES is used for solving the linear system.
Using a ILU(0) preconditioning.
Convergence criteria of the linear solver: 1e-10.
Max number of linear iterations: 10.
CFL adaptation. Factor down: 0.1, factor up: 1.2,
                lower limit: 10, upper limit: 500.
Courant-Friedrichs-Lewy number:       10
Euler implicit time integration for the turbulence model.

------------------ Convergence Criteria  ( Zone 0 ) ---------------------
Maximum number of solver subiterations: 99999.
Begin convergence monitoring at iteration 10.
Residual minimum value: 1e-13.
Cauchy series min. value: 1e-06.
Number of Cauchy elements: 100.
Begin windowed time average at iteration 0.

-------------------- Output Information ( Zone 0 ) ----------------------
Writing solution files every 250 iterations.
Writing the convergence history file every 1 inner iterations.
Writing the screen convergence history every 1 inner iterations.
The tabular file format is Tecplot (.dat).
Convergence history file name: history.
Forces breakdown file name: forces_breakdown.dat.
Surface file name: surface.
Volume file name: vol_solution.
Restart file name: restart.dat.

------------- Config File Boundary Information ( Zone 0 ) ---------------
+-----------------------------------------------------------------------+
|                        Marker Type|                        Marker Name|
+-----------------------------------------------------------------------+
|                     Symmetry plane|                           symmetry|
+-----------------------------------------------------------------------+
|                     Inlet boundary|                              inlet|
+-----------------------------------------------------------------------+
|                    Outlet boundary|                             outlet|
|                                   |                           farfield|
+-----------------------------------------------------------------------+
|                     Heat flux wall|                               wall|
+-----------------------------------------------------------------------+

-------------------- Output Preprocessing ( Zone 0 ) --------------------
Screen output fields: INNER_ITER, WALL_TIME, RMS_DENSITY, RMS_ENERGY, LIFT, DRAG, AVG_CFL, REL_RMS_DENSITY
History output group(s): ITER, AERO_COEFF, RMS_RES, REL_RMS_RES, CFL_NUMBER
Convergence field(s): RMS_DENSITY
Warning: No (valid) fields chosen for time convergence monitoring. Time convergence monitoring inactive.
Volume output fields: COORDINATES, SOLUTION, PRIMITIVE

------------------- Geometry Preprocessing ( Zone 0 ) -------------------
Two dimensional problem.
875 grid points.
816 volume elements.
5 surface markers.
34 boundary elements in index 0 (Marker = farfield).
24 boundary elements in index 1 (Marker = inlet).
24 boundary elements in index 2 (Marker = outlet).
6 boundary elements in index 3 (Marker = symmetry).
28 boundary elements in index 4 (Marker = wall).
816 quadrilaterals.
Setting point connectivity.
Renumbering points (Reverse Cuthill McKee Ordering).
Recomputing point connectivity.
Setting element connectivity.
Checking the numerical grid orientation.
All volume elements are correctly orientend.
All surface elements are correctly orientend.
Identifying edges and vertices.
Computing centers of gravity.
Setting the control volume structure.
Area of the computational grid: 2.33333.
Searching for the closest normal neighbors to the surfaces.
Storing a mapping from global to local point index.
Compute the surface curvature.
Max K: 14.9378. Mean K: 0.600016. Standard deviation K: 2.51663.
Checking for periodicity.
Computing mesh quality statistics for the dual control volumes.
+--------------------------------------------------------------+
|           Mesh Quality Metric|        Minimum|        Maximum|
+--------------------------------------------------------------+
|    Orthogonality Angle (deg.)|             90|             90|
|     CV Face Area Aspect Ratio|        1.00805|        41306.1|
|           CV Sub-Volume Ratio|              1|        2.69451|
+--------------------------------------------------------------+
Finding max control volume width.
Wetted area = 0.0859169 m.
Area projection in the x-plane = 0 m, y-plane = 0 m.
Max. coordinate in the x-direction = 2 m, y-direction = 0 m.
Min. coordinate in the x-direction = 0 m, y-direction = 0 m.
Checking if Euler & Symmetry markers are straight/plane:
Boundary marker symmetry is a single straight.
Computing wall distances.

-------------------- Solver Preprocessing ( Zone 0 ) --------------------
Viscous flow: Computing pressure using the ideal gas law
based on the free-stream temperature and a density computed
from the Reynolds number.
Force coefficients computed using free-stream values.

-- Models:
+------------------------------------------------------------------------------+
|          Viscosity Model|        Conductivity Model|              Fluid Model|
+------------------------------------------------------------------------------+
|               SUTHERLAND|          CONSTANT_PRANDTL|             STANDARD_AIR|
+------------------------------------------------------------------------------+
-- Fluid properties:
+------------------------------------------------------------------------------+
|                  Name|    Dim. value|    Ref. value|      Unit|Non-dim. value|
+------------------------------------------------------------------------------+
|        Ref. Viscosity|     1.716e-05|       390.021|   N.s/m^2|   4.39976e-08|
|      Sutherland Temp.|        273.15|           300|         K|        0.9105|
|     Sutherland Const.|         110.4|           300|         K|         0.368|
+------------------------------------------------------------------------------+
|        Prandtl (Lam.)|             -|             -|         -|          0.72|
|       Prandtl (Turb.)|             -|             -|         -|           0.9|
+------------------------------------------------------------------------------+
|          Gas Constant|       287.058|       287.058|  N.m/kg.K|             1|
|      Spec. Heat Ratio|             -|             -|         -|           1.4|
+------------------------------------------------------------------------------+
-- Initial and free-stream conditions:
+------------------------------------------------------------------------------+
|                  Name|    Dim. value|    Ref. value|      Unit|Non-dim. value|
+------------------------------------------------------------------------------+
|       Static Pressure|        114455|        114455|        Pa|             1|
|               Density|       1.32905|       1.32905|    kg/m^3|             1|
|           Temperature|           300|           300|         K|             1|
|          Total Energy|        217705|       86117.4|   m^2/s^2|         2.528|
|            Velocity-X|       69.4448|       293.458|       m/s|      0.236643|
|            Velocity-Y|             0|       293.458|       m/s|             0|
|    Velocity Magnitude|       69.4448|       293.458|       m/s|      0.236643|
+------------------------------------------------------------------------------+
|             Viscosity|   1.84592e-05|       390.021|   N.s/m^2|   4.73286e-08|
|          Conductivity|             -|        111959|   W/m^2.K|             -|
|     Turb. Kin. Energy|       18.0847|       86117.4|   m^2/s^2|       0.00021|
|     Spec. Dissipation|        130209|       293.458|       1/s|       443.706|
+------------------------------------------------------------------------------+
|           Mach Number|             -|             -|         -|           0.2|
|       Reynolds Number|             -|             -|         -|         5e+06|
+------------------------------------------------------------------------------+
Initialize Jacobian structure (Navier-Stokes). MG level: 0.
Initialize Jacobian structure (SA model).

------------------- Numerics Preprocessing ( Zone 0 ) -------------------

----------------- Integration Preprocessing ( Zone 0 ) ------------------

------------------- Iteration Preprocessing ( Zone 0 ) ------------------
Euler/Navier-Stokes/RANS fluid iteration.

------------------------------ Begin Solver -----------------------------

Simulation Run using the Single-zone Driver
+-------------------------------------------------------------------------------------------------------+
|  Inner_Iter|   Time(sec)|    rms[Rho]|   rms[RhoE]|          CL|          CD|     Avg CFL| relrms[Rho]|
+-------------------------------------------------------------------------------------------------------+
|           0|  6.0457e-03|   -7.227460|   -6.692054|   -0.400001|    0.048490|  1.2000e+01|    0.000000|
|           1|  5.5691e-03|   -4.022624|   -3.471472|   -0.252697|    0.046962|  1.4400e+01|    0.000000|
|           2|  5.3926e-03|   -4.238049|   -3.686153|   -0.058951|    0.045179|  1.7280e+01|   -0.215425|
|           3|  5.3276e-03|   -4.431061|   -3.880795|    0.055346|    0.043278|  2.0736e+01|   -0.408437|
|           4|  5.2726e-03|   -4.942851|   -4.393767|    0.081633|    0.041343|  2.4883e+01|   -0.920227|
|           5|  5.2561e-03|   -5.135030|   -4.591414|    0.074295|    0.039300|  2.9860e+01|   -1.112405|
|           6|  5.2370e-03|   -5.189729|   -4.641609|    0.069333|    0.037122|  3.5832e+01|   -1.167105|
|           7|  5.2373e-03|   -5.265081|   -4.713002|    0.068553|    0.034833|  4.2998e+01|   -1.242457|
|           8|  5.1925e-03|   -5.314472|   -4.762435|    0.064130|    0.032475|  5.1598e+01|   -1.291847|
|           9|  5.1768e-03|   -5.350242|   -4.797653|    0.054970|    0.030091|  6.1917e+01|   -1.327617|
|          10|  5.1545e-03|   -5.388357|   -4.835132|    0.045269|    0.027721|  7.4301e+01|   -1.365732|
|          11|  5.1487e-03|   -5.426519|   -4.874127|    0.038417|    0.025404|  8.9161e+01|   -1.403894|
|          12|  5.1275e-03|   -5.464398|   -4.912845|    0.034409|    0.023175|  1.0699e+02|   -1.441774|
|          13|  5.1179e-03|   -5.504918|   -4.954040|    0.031175|    0.021061|  1.2839e+02|   -1.482294|
|          14|  5.1158e-03|   -5.547092|   -4.997166|    0.027353|    0.019078|  1.5407e+02|   -1.524467|
|          15|  5.1218e-03|   -5.592433|   -5.043263|    0.023189|    0.017234|  1.8488e+02|   -1.569809|
|          16|  5.1284e-03|   -5.639677|   -5.091032|    0.019307|    0.015527|  2.2186e+02|   -1.617053|
|          17|  5.1349e-03|   -5.688584|   -5.140321|    0.015890|    0.013955|  2.6623e+02|   -1.665960|
|          18|  5.1282e-03|   -5.739198|   -5.191209|    0.012930|    0.012513|  3.1948e+02|   -1.716574|
|          19|  5.1292e-03|   -5.790262|   -5.242457|    0.010410|    0.011195|  3.8338e+02|   -1.767637|
|          20|  5.1315e-03|   -5.839541|   -5.291848|    0.008296|    0.009995|  4.6005e+02|   -1.816916|
|          21|  5.1405e-03|   -5.885150|   -5.337522|    0.006563|    0.008909|  5.0000e+02|   -1.862525|
|          22|  5.1395e-03|   -5.926399|   -5.378813|    0.005169|    0.008006|  5.0000e+02|   -1.903774|
|          23|  5.1372e-03|   -5.997896|   -5.450712|    0.004188|    0.007298|  5.0000e+02|   -1.975271|
|          24|  5.1405e-03|   -6.099975|   -5.553190|    0.003509|    0.006732|  5.0000e+02|   -2.077350|
|          25|  5.1623e-03|   -6.197515|   -5.650603|    0.002995|    0.006276|  5.0000e+02|   -2.174890|
|          26|  5.1682e-03|   -6.282903|   -5.735926|    0.002617|    0.005908|  5.0000e+02|   -2.260278|
|          27|  5.1680e-03|   -6.364451|   -5.818043|    0.002338|    0.005613|  5.0000e+02|   -2.341827|
|          28|  5.1731e-03|   -6.446064|   -5.901243|    0.002128|    0.005381|  5.0000e+02|   -2.423439|
|          29|  5.1735e-03|   -6.520494|   -5.978552|    0.001974|    0.005201|  5.0000e+02|   -2.497869|
|          30|  5.1739e-03|   -6.580159|   -6.041553|    0.001866|    0.005061|  5.0000e+02|   -2.557534|
|          31|  5.1725e-03|   -6.636345|   -6.100255|    0.001790|    0.004951|  5.0000e+02|   -2.613720|
|          32|  5.1741e-03|   -6.687528|   -6.153204|    0.001736|    0.004859|  5.0000e+02|   -2.664903|
|          33|  5.1720e-03|   -6.741496|   -6.207411|    0.001697|    0.004778|  5.0000e+02|   -2.718871|
|          34|  5.1838e-03|   -6.785457|   -6.251361|    0.001669|    0.004702|  5.0000e+02|   -2.762832|
|          35|  5.1839e-03|   -6.824350|   -6.289259|    0.001648|    0.004630|  5.0000e+02|   -2.801725|
|          36|  5.1927e-03|   -6.858330|   -6.322037|    0.001634|    0.004559|  5.0000e+02|   -2.835706|
|          37|  5.1909e-03|   -6.880812|   -6.343476|    0.001623|    0.004489|  5.0000e+02|   -2.858188|
|          38|  5.1954e-03|   -6.901404|   -6.362569|    0.001617|    0.004420|  5.0000e+02|   -2.878779|
|          39|  5.1987e-03|   -6.915338|   -6.375293|    0.001614|    0.004352|  5.0000e+02|   -2.892714|
|          40|  5.2014e-03|   -6.922024|   -6.381088|    0.001614|    0.004285|  5.0000e+02|   -2.899399|
|          41|  5.2009e-03|   -6.926324|   -6.384487|    0.001617|    0.004220|  5.0000e+02|   -2.903699|
|          42|  5.2030e-03|   -6.925677|   -6.383254|    0.001621|    0.004156|  5.0000e+02|   -2.903053|
|          43|  5.2041e-03|   -6.919118|   -6.376536|    0.001627|    0.004095|  5.0000e+02|   -2.896493|
|          44|  5.2083e-03|   -6.909549|   -6.367060|    0.001634|    0.004035|  5.0000e+02|   -2.886924|
|          45|  5.2081e-03|   -6.897769|   -6.355616|    0.001641|    0.003977|  5.0000e+02|   -2.875145|
|          46|  5.2096e-03|   -6.883102|   -6.341606|    0.001647|    0.003921|  5.0000e+02|   -2.860477|
|          47|  5.2102e-03|   -6.866348|   -6.325809|    0.001651|    0.003867|  5.0000e+02|   -2.843723|
|          48|  5.2117e-03|   -6.849246|   -6.309900|    0.001653|    0.003815|  5.0000e+02|   -2.826621|
|          49|  5.2131e-03|   -6.833058|   -6.295083|    0.001650|    0.003765|  5.0000e+02|   -2.810433|
|          50|  5.2151e-03|   -6.818261|   -6.281779|    0.001644|    0.003717|  5.0000e+02|   -2.795637|
|          51|  5.2135e-03|   -6.805100|   -6.270158|    0.001632|    0.003671|  5.0000e+02|   -2.782476|
|          52|  5.2147e-03|   -6.793914|   -6.260497|    0.001614|    0.003626|  5.0000e+02|   -2.771289|
|          53|  5.2168e-03|   -6.785082|   -6.253140|    0.001591|    0.003584|  5.0000e+02|   -2.762457|
|          54|  5.2187e-03|   -6.778916|   -6.248367|    0.001562|    0.003543|  5.0000e+02|   -2.756292|
|          55|  5.2229e-03|   -6.775583|   -6.246307|    0.001528|    0.003504|  5.0000e+02|   -2.752959|
|          56|  5.2234e-03|   -6.775069|   -6.246903|    0.001489|    0.003467|  5.0000e+02|   -2.752445|
|          57|  5.2234e-03|   -6.777235|   -6.249984|    0.001446|    0.003431|  5.0000e+02|   -2.754610|
|          58|  5.2254e-03|   -6.781900|   -6.255357|    0.001399|    0.003398|  5.0000e+02|   -2.759275|
|          59|  5.2293e-03|   -6.788883|   -6.262847|    0.001350|    0.003365|  5.0000e+02|   -2.766259|
|          60|  5.2276e-03|   -6.798011|   -6.272300|    0.001298|    0.003335|  5.0000e+02|   -2.775387|
|          61|  5.2295e-03|   -6.809121|   -6.283586|    0.001245|    0.003305|  5.0000e+02|   -2.786496|
|          62|  5.2335e-03|   -6.822063|   -6.296589|    0.001191|    0.003278|  5.0000e+02|   -2.799439|
|          63|  5.2373e-03|   -6.836704|   -6.311211|    0.001137|    0.003252|  5.0000e+02|   -2.814079|
|          64|  5.2347e-03|   -6.852918|   -6.327358|    0.001084|    0.003227|  5.0000e+02|   -2.830294|
|          65|  5.2363e-03|   -6.870587|   -6.344938|    0.001031|    0.003203|  5.0000e+02|   -2.847963|
|          66|  5.2364e-03|   -6.889593|   -6.363855|    0.000978|    0.003181|  5.0000e+02|   -2.866968|
|          67|  5.2377e-03|   -6.909814|   -6.384006|    0.000927|    0.003160|  5.0000e+02|   -2.887189|
|          68|  5.2394e-03|   -6.931123|   -6.405273|    0.000878|    0.003140|  5.0000e+02|   -2.908498|
|          69|  5.2393e-03|   -6.953380|   -6.427525|    0.000829|    0.003121|  5.0000e+02|   -2.930755|
|          70|  5.2390e-03|   -6.976431|   -6.450610|    0.000783|    0.003103|  5.0000e+02|   -2.953806|
|          71|  5.2400e-03|   -7.000123|   -6.474372|    0.000738|    0.003086|  5.0000e+02|   -2.977499|
|          72|  5.2402e-03|   -7.024279|   -6.498626|    0.000694|    0.003070|  5.0000e+02|   -3.001655|
|          73|  5.2409e-03|   -7.048689|   -6.523152|    0.000653|    0.003055|  5.0000e+02|   -3.026064|
|          74|  5.2429e-03|   -7.073139|   -6.547723|    0.000613|    0.003041|  5.0000e+02|   -3.050515|
|          75|  5.2447e-03|   -7.097432|   -6.572125|    0.000574|    0.003027|  5.0000e+02|   -3.074808|
|          76|  5.2435e-03|   -7.121389|   -6.596165|    0.000538|    0.003015|  5.0000e+02|   -3.098764|
|          77|  5.2452e-03|   -7.144863|   -6.619681|    0.000503|    0.003003|  5.0000e+02|   -3.122239|
|          78|  5.2494e-03|   -7.167758|   -6.642565|    0.000470|    0.002991|  5.0000e+02|   -3.145133|
|          79|  5.2516e-03|   -7.190033|   -6.664774|    0.000439|    0.002981|  5.0000e+02|   -3.167408|
|          80|  5.2555e-03|   -7.211713|   -6.686331|    0.000409|    0.002971|  5.0000e+02|   -3.189088|
|          81|  5.2558e-03|   -7.232879|   -6.707328|    0.000380|    0.002961|  5.0000e+02|   -3.210255|
|          82|  5.2607e-03|   -7.253665|   -6.727907|    0.000353|    0.002952|  5.0000e+02|   -3.231040|
|          83|  5.2633e-03|   -7.274221|   -6.748236|    0.000327|    0.002944|  5.0000e+02|   -3.251596|
|          84|  5.2621e-03|   -7.294714|   -6.768499|    0.000302|    0.002936|  5.0000e+02|   -3.272090|
|          85|  5.2617e-03|   -7.315315|   -6.788883|    0.000278|    0.002928|  5.0000e+02|   -3.292690|
|          86|  5.2623e-03|   -7.336178|   -6.809555|    0.000256|    0.002921|  5.0000e+02|   -3.313553|
|          87|  5.2622e-03|   -7.357433|   -6.830658|    0.000234|    0.002914|  5.0000e+02|   -3.334808|
|          88|  5.2602e-03|   -7.379178|   -6.852297|    0.000213|    0.002908|  5.0000e+02|   -3.356554|
|          89|  5.2589e-03|   -7.401478|   -6.874540|    0.000193|    0.002902|  5.0000e+02|   -3.378854|
|          90|  5.2583e-03|   -7.424359|   -6.897415|    0.000174|    0.002897|  5.0000e+02|   -3.401734|
|          91|  5.2579e-03|   -7.447811|   -6.920912|    0.000156|    0.002891|  5.0000e+02|   -3.425186|
|          92|  5.2600e-03|   -7.471788|   -6.944980|    0.000139|    0.002886|  5.0000e+02|   -3.449163|
|          93|  5.2604e-03|   -7.496211|   -6.969533|    0.000122|    0.002882|  5.0000e+02|   -3.473586|
|          94|  5.2586e-03|   -7.520969|   -6.994451|    0.000106|    0.002877|  5.0000e+02|   -3.498345|
|          95|  5.2583e-03|   -7.545931|   -7.019590|    0.000090|    0.002873|  5.0000e+02|   -3.523307|
|          96|  5.2574e-03|   -7.570950|   -7.044788|    0.000076|    0.002869|  5.0000e+02|   -3.548325|
|          97|  5.2572e-03|   -7.595875|   -7.069881|    0.000062|    0.002866|  5.0000e+02|   -3.573250|
|          98|  5.2557e-03|   -7.620564|   -7.094713|    0.000049|    0.002862|  5.0000e+02|   -3.597940|
|          99|  5.2548e-03|   -7.644899|   -7.119152|    0.000036|    0.002859|  5.0000e+02|   -3.622275|
|         100|  5.2534e-03|   -7.668798|   -7.143106|    0.000024|    0.002856|  5.0000e+02|   -3.646173|
|         101|  5.2533e-03|   -7.692221|   -7.166534|    0.000013|    0.002853|  5.0000e+02|   -3.669597|
|         102|  5.2540e-03|   -7.715181|   -7.189447|    0.000002|    0.002850|  5.0000e+02|   -3.692557|
|         103|  5.2543e-03|   -7.737737|   -7.211911|   -0.000008|    0.002848|  5.0000e+02|   -3.715112|
|         104|  5.2529e-03|   -7.759987|   -7.234038|   -0.000018|    0.002845|  5.0000e+02|   -3.737363|
|         105|  5.2526e-03|   -7.782061|   -7.255972|   -0.000027|    0.002843|  5.0000e+02|   -3.759437|
|         106|  5.2523e-03|   -7.804104|   -7.277871|   -0.000036|    0.002841|  5.0000e+02|   -3.781480|
|         107|  5.2516e-03|   -7.826263|   -7.299900|   -0.000044|    0.002839|  5.0000e+02|   -3.803638|
|         108|  5.2501e-03|   -7.848674|   -7.322209|   -0.000052|    0.002837|  5.0000e+02|   -3.826050|
|         109|  5.2521e-03|   -7.871457|   -7.344927|   -0.000060|    0.002835|  5.0000e+02|   -3.848832|
|         110|  5.2514e-03|   -7.894702|   -7.368155|   -0.000067|    0.002834|  5.0000e+02|   -3.872077|
|         111|  5.2508e-03|   -7.918469|   -7.391959|   -0.000074|    0.002832|  5.0000e+02|   -3.895844|
|         112|  5.2517e-03|   -7.942786|   -7.416369|   -0.000080|    0.002831|  5.0000e+02|   -3.920161|
|         113|  5.2510e-03|   -7.967645|   -7.441378|   -0.000087|    0.002829|  5.0000e+02|   -3.945020|
|         114|  5.2502e-03|   -7.993004|   -7.466941|   -0.000093|    0.002828|  5.0000e+02|   -3.970380|
|         115|  5.2507e-03|   -8.018791|   -7.492981|   -0.000098|    0.002827|  5.0000e+02|   -3.996166|
|         116|  5.2507e-03|   -8.044902|   -7.519385|   -0.000104|    0.002826|  5.0000e+02|   -4.022278|
|         117|  5.2494e-03|   -8.071212|   -7.546018|   -0.000109|    0.002825|  5.0000e+02|   -4.048587|
|         118|  5.2496e-03|   -8.097578|   -7.572725|   -0.000113|    0.002824|  5.0000e+02|   -4.074954|
|         119|  5.2496e-03|   -8.123855|   -7.599344|   -0.000118|    0.002823|  5.0000e+02|   -4.101230|
|         120|  5.2499e-03|   -8.149902|   -7.625723|   -0.000122|    0.002822|  5.0000e+02|   -4.127277|
|         121|  5.2517e-03|   -8.175599|   -7.651726|   -0.000126|    0.002821|  5.0000e+02|   -4.152974|
|         122|  5.2530e-03|   -8.200858|   -7.677258|   -0.000130|    0.002820|  5.0000e+02|   -4.178234|
|         123|  5.2531e-03|   -8.225635|   -7.702267|   -0.000134|    0.002820|  5.0000e+02|   -4.203010|
|         124|  5.2522e-03|   -8.249930|   -7.726755|   -0.000138|    0.002819|  5.0000e+02|   -4.227306|
|         125|  5.2521e-03|   -8.273793|   -7.750778|   -0.000141|    0.002818|  5.0000e+02|   -4.251168|
|         126|  5.2520e-03|   -8.297311|   -7.774435|   -0.000144|    0.002818|  5.0000e+02|   -4.274686|
|         127|  5.2515e-03|   -8.320604|   -7.797863|   -0.000147|    0.002817|  5.0000e+02|   -4.297980|
|         128|  5.2520e-03|   -8.343811|   -7.821217|   -0.000150|    0.002817|  5.0000e+02|   -4.321186|
|         129|  5.2517e-03|   -8.367073|   -7.844659|   -0.000152|    0.002816|  5.0000e+02|   -4.344448|
|         130|  5.2520e-03|   -8.390525|   -7.868342|   -0.000155|    0.002816|  5.0000e+02|   -4.367901|
|         131|  5.2521e-03|   -8.414285|   -7.892402|   -0.000157|    0.002815|  5.0000e+02|   -4.391661|
|         132|  5.2526e-03|   -8.438446|   -7.916947|   -0.000159|    0.002815|  5.0000e+02|   -4.415822|
|         133|  5.2516e-03|   -8.463070|   -7.942051|   -0.000161|    0.002815|  5.0000e+02|   -4.440446|
|         134|  5.2521e-03|   -8.488186|   -7.967754|   -0.000163|    0.002814|  5.0000e+02|   -4.465561|
|         135|  5.2516e-03|   -8.513788|   -7.994057|   -0.000165|    0.002814|  5.0000e+02|   -4.491163|
|         136|  5.2504e-03|   -8.539836|   -8.020924|   -0.000167|    0.002814|  5.0000e+02|   -4.517211|
|         137|  5.2490e-03|   -8.566256|   -8.048284|   -0.000169|    0.002813|  5.0000e+02|   -4.543632|
|         138|  5.2484e-03|   -8.592946|   -8.076029|   -0.000171|    0.002813|  5.0000e+02|   -4.570321|
|         139|  5.2478e-03|   -8.619777|   -8.104025|   -0.000172|    0.002813|  5.0000e+02|   -4.597152|
|         140|  5.2468e-03|   -8.646604|   -8.132116|   -0.000173|    0.002813|  5.0000e+02|   -4.623980|
|         141|  5.2465e-03|   -8.673277|   -8.160137|   -0.000175|    0.002812|  5.0000e+02|   -4.650653|
|         142|  5.2476e-03|   -8.699651|   -8.187925|   -0.000176|    0.002812|  5.0000e+02|   -4.677027|
|         143|  5.2467e-03|   -8.725600|   -8.215337|   -0.000177|    0.002812|  5.0000e+02|   -4.702975|
|         144|  5.2467e-03|   -8.751029|   -8.242264|   -0.000179|    0.002812|  5.0000e+02|   -4.728404|
|         145|  5.2457e-03|   -8.775885|   -8.268644|   -0.000180|    0.002812|  5.0000e+02|   -4.753261|
|         146|  5.2447e-03|   -8.800161|   -8.294468|   -0.000181|    0.002811|  5.0000e+02|   -4.777537|
|         147|  5.2442e-03|   -8.823897|   -8.319784|   -0.000182|    0.002811|  5.0000e+02|   -4.801272|
|         148|  5.2433e-03|   -8.847170|   -8.344688|   -0.000183|    0.002811|  5.0000e+02|   -4.824545|
|         149|  5.2443e-03|   -8.870088|   -8.369317|   -0.000183|    0.002811|  5.0000e+02|   -4.847463|
|         150|  5.2445e-03|   -8.892776|   -8.393831|   -0.000184|    0.002811|  5.0000e+02|   -4.870152|
|         151|  5.2439e-03|   -8.915362|   -8.418402|   -0.000185|    0.002811|  5.0000e+02|   -4.892738|
|         152|  5.2443e-03|   -8.937964|   -8.443192|   -0.000186|    0.002811|  5.0000e+02|   -4.915340|
|         153|  5.2444e-03|   -8.960681|   -8.468349|   -0.000186|    0.002811|  5.0000e+02|   -4.938056|
|         154|  5.2443e-03|   -8.983583|   -8.493992|   -0.000187|    0.002811|  5.0000e+02|   -4.960959|
|         155|  5.2442e-03|   -9.006712|   -8.520209|   -0.000188|    0.002811|  5.0000e+02|   -4.984088|
|         156|  5.2432e-03|   -9.030071|   -8.547048|   -0.000188|    0.002810|  5.0000e+02|   -5.007447|
|         157|  5.2432e-03|   -9.053632|   -8.574520|   -0.000189|    0.002810|  5.0000e+02|   -5.031007|
|         158|  5.2432e-03|   -9.077329|   -8.602594|   -0.000189|    0.002810|  5.0000e+02|   -5.054705|
|         159|  5.2431e-03|   -9.101070|   -8.631200|   -0.000190|    0.002810|  5.0000e+02|   -5.078446|
|         160|  5.2428e-03|   -9.124736|   -8.660229|   -0.000190|    0.002810|  5.0000e+02|   -5.102111|
|         161|  5.2428e-03|   -9.148189|   -8.689542|   -0.000191|    0.002810|  5.0000e+02|   -5.125565|
|         162|  5.2437e-03|   -9.171287|   -8.718971|   -0.000191|    0.002810|  5.0000e+02|   -5.148662|
|         163|  5.2442e-03|   -9.193887|   -8.748336|   -0.000191|    0.002810|  5.0000e+02|   -5.171262|
|         164|  5.2442e-03|   -9.215863|   -8.777457|   -0.000192|    0.002810|  5.0000e+02|   -5.193239|
|         165|  5.2448e-03|   -9.237117|   -8.806171|   -0.000192|    0.002810|  5.0000e+02|   -5.214492|
|         166|  5.2442e-03|   -9.257582|   -8.834348|   -0.000192|    0.002810|  5.0000e+02|   -5.234957|
|         167|  5.2439e-03|   -9.277233|   -8.861910|   -0.000193|    0.002810|  5.0000e+02|   -5.254609|
|         168|  5.2435e-03|   -9.296085|   -8.888835|   -0.000193|    0.002810|  5.0000e+02|   -5.273461|
|         169|  5.2437e-03|   -9.314186|   -8.915164|   -0.000193|    0.002810|  5.0000e+02|   -5.291562|
|         170|  5.2435e-03|   -9.331610|   -8.940997|   -0.000194|    0.002810|  5.0000e+02|   -5.308986|
|         171|  5.2440e-03|   -9.348448|   -8.966477|   -0.000194|    0.002810|  5.0000e+02|   -5.325824|
|         172|  5.2444e-03|   -9.364793|   -8.991777|   -0.000194|    0.002810|  5.0000e+02|   -5.342169|
|         173|  5.2451e-03|   -9.380733|   -9.017081|   -0.000194|    0.002810|  5.0000e+02|   -5.358108|
|         174|  5.2456e-03|   -9.396339|   -9.042570|   -0.000194|    0.002810|  5.0000e+02|   -5.373715|
|         175|  5.2452e-03|   -9.411668|   -9.068403|   -0.000195|    0.002810|  5.0000e+02|   -5.389043|
|         176|  5.2521e-03|   -9.426750|   -9.094712|   -0.000195|    0.002810|  5.0000e+02|   -5.404126|
|         177|  5.2530e-03|   -9.441598|   -9.121593|   -0.000195|    0.002810|  5.0000e+02|   -5.418973|
|         178|  5.2537e-03|   -9.456201|   -9.149098|   -0.000195|    0.002810|  5.0000e+02|   -5.433577|
|         179|  5.2534e-03|   -9.470536|   -9.177238|   -0.000195|    0.002810|  5.0000e+02|   -5.447912|
|         180|  5.2532e-03|   -9.484566|   -9.205974|   -0.000195|    0.002810|  5.0000e+02|   -5.461942|
|         181|  5.2541e-03|   -9.498249|   -9.235226|   -0.000195|    0.002810|  5.0000e+02|   -5.475625|
|         182|  5.2551e-03|   -9.511540|   -9.264869|   -0.000196|    0.002810|  5.0000e+02|   -5.488916|
|         183|  5.2548e-03|   -9.524400|   -9.294737|   -0.000196|    0.002810|  5.0000e+02|   -5.501776|
|         184|  5.2552e-03|   -9.536796|   -9.324637|   -0.000196|    0.002810|  5.0000e+02|   -5.514172|
|         185|  5.2557e-03|   -9.548708|   -9.354354|   -0.000196|    0.002810|  5.0000e+02|   -5.526083|
|         186|  5.2553e-03|   -9.560128|   -9.383673|   -0.000196|    0.002810|  5.0000e+02|   -5.537504|
|         187|  5.2554e-03|   -9.571065|   -9.412397|   -0.000196|    0.002810|  5.0000e+02|   -5.548440|
|         188|  5.2563e-03|   -9.581539|   -9.440364|   -0.000196|    0.002810|  5.0000e+02|   -5.558915|
|         189|  5.2561e-03|   -9.591584|   -9.467471|   -0.000196|    0.002810|  5.0000e+02|   -5.568960|
|         190|  5.2556e-03|   -9.601241|   -9.493679|   -0.000196|    0.002810|  5.0000e+02|   -5.578616|
|         191|  5.2570e-03|   -9.610555|   -9.519020|   -0.000196|    0.002810|  5.0000e+02|   -5.587931|
|         192|  5.2581e-03|   -9.619575|   -9.543587|   -0.000196|    0.002810|  5.0000e+02|   -5.596951|
|         193|  5.2577e-03|   -9.628346|   -9.567521|   -0.000197|    0.002810|  5.0000e+02|   -5.605721|
|         194|  5.2579e-03|   -9.636907|   -9.590986|   -0.000197|    0.002810|  5.0000e+02|   -5.614283|
|         195|  5.2586e-03|   -9.645295|   -9.614155|   -0.000197|    0.002810|  5.0000e+02|   -5.622671|
|         196|  5.2588e-03|   -9.653538|   -9.637185|   -0.000197|    0.002810|  5.0000e+02|   -5.630913|
|         197|  5.2585e-03|   -9.661654|   -9.660201|   -0.000197|    0.002810|  5.0000e+02|   -5.639030|
|         198|  5.2585e-03|   -9.669661|   -9.683291|   -0.000197|    0.002810|  5.0000e+02|   -5.647036|
|         199|  5.2577e-03|   -9.677565|   -9.706495|   -0.000197|    0.002810|  5.0000e+02|   -5.654941|
|         200|  5.2576e-03|   -9.685373|   -9.729801|   -0.000197|    0.002810|  5.0000e+02|   -5.662748|
|         201|  5.2586e-03|   -9.693085|   -9.753149|   -0.000197|    0.002809|  5.0000e+02|   -5.670461|
|         202|  5.2585e-03|   -9.700703|   -9.776432|   -0.000197|    0.002809|  5.0000e+02|   -5.678078|
|         203|  5.2585e-03|   -9.708224|   -9.799501|   -0.000197|    0.002809|  5.0000e+02|   -5.685599|
|         204|  5.2589e-03|   -9.715648|   -9.822175|   -0.000197|    0.002809|  5.0000e+02|   -5.693024|
|         205|  5.2589e-03|   -9.722975|   -9.844254|   -0.000197|    0.002809|  5.0000e+02|   -5.700351|
|         206|  5.2590e-03|   -9.730207|   -9.865534|   -0.000197|    0.002809|  5.0000e+02|   -5.707582|
|         207|  5.2596e-03|   -9.737345|   -9.885823|   -0.000197|    0.002809|  5.0000e+02|   -5.714720|
|         208|  5.2591e-03|   -9.744394|   -9.904962|   -0.000197|    0.002809|  5.0000e+02|   -5.721769|
|         209|  5.2590e-03|   -9.751359|   -9.922838|   -0.000197|    0.002809|  5.0000e+02|   -5.728735|
|         210|  5.2595e-03|   -9.758249|   -9.939395|   -0.000197|    0.002809|  5.0000e+02|   -5.735624|
|         211|  5.2598e-03|   -9.765069|   -9.954637|   -0.000197|    0.002809|  5.0000e+02|   -5.742445|
|         212|  5.2596e-03|   -9.771830|   -9.968623|   -0.000197|    0.002809|  5.0000e+02|   -5.749205|
|         213|  5.2599e-03|   -9.778538|   -9.981452|   -0.000197|    0.002809|  5.0000e+02|   -5.755914|
|         214|  5.2598e-03|   -9.785202|   -9.993253|   -0.000197|    0.002809|  5.0000e+02|   -5.762578|
|         215|  5.2596e-03|   -9.791829|  -10.004162|   -0.000197|    0.002809|  5.0000e+02|   -5.769205|
|         216|  5.2596e-03|   -9.798425|  -10.014314|   -0.000197|    0.002809|  5.0000e+02|   -5.775801|
|         217|  5.2596e-03|   -9.804996|  -10.023827|   -0.000197|    0.002809|  5.0000e+02|   -5.782371|
|         218|  5.2602e-03|   -9.811545|  -10.032795|   -0.000197|    0.002809|  5.0000e+02|   -5.788920|
|         219|  5.2598e-03|   -9.818075|  -10.041294|   -0.000197|    0.002809|  5.0000e+02|   -5.795451|
|         220|  5.2604e-03|   -9.824590|  -10.049373|   -0.000197|    0.002809|  5.0000e+02|   -5.801966|
|         221|  5.2607e-03|   -9.831091|  -10.057064|   -0.000197|    0.002809|  5.0000e+02|   -5.808467|
|         222|  5.2606e-03|   -9.837579|  -10.064386|   -0.000197|    0.002809|  5.0000e+02|   -5.814955|
|         223|  5.2609e-03|   -9.844055|  -10.071345|   -0.000197|    0.002809|  5.0000e+02|   -5.821430|
|         224|  5.2615e-03|   -9.850518|  -10.077944|   -0.000197|    0.002809|  5.0000e+02|   -5.827894|
|         225|  5.2623e-03|   -9.856971|  -10.084183|   -0.000197|    0.002809|  5.0000e+02|   -5.834346|
|         226|  5.2620e-03|   -9.863412|  -10.090065|   -0.000197|    0.002809|  5.0000e+02|   -5.840788|
|         227|  5.2615e-03|   -9.869843|  -10.095594|   -0.000197|    0.002809|  5.0000e+02|   -5.847218|
|         228|  5.2612e-03|   -9.876263|  -10.100780|   -0.000197|    0.002809|  5.0000e+02|   -5.853639|
|         229|  5.2619e-03|   -9.882674|  -10.105640|   -0.000197|    0.002809|  5.0000e+02|   -5.860049|
|         230|  5.2619e-03|   -9.889075|  -10.110193|   -0.000197|    0.002809|  5.0000e+02|   -5.866451|
|         231|  5.2622e-03|   -9.895468|  -10.114465|   -0.000197|    0.002809|  5.0000e+02|   -5.872844|
|         232|  5.2623e-03|   -9.901853|  -10.118484|   -0.000197|    0.002809|  5.0000e+02|   -5.879229|
|         233|  5.2619e-03|   -9.908231|  -10.122282|   -0.000197|    0.002809|  5.0000e+02|   -5.885607|
|         234|  5.2624e-03|   -9.914603|  -10.125889|   -0.000197|    0.002809|  5.0000e+02|   -5.891978|
|         235|  5.2638e-03|   -9.920970|  -10.129336|   -0.000197|    0.002809|  5.0000e+02|   -5.898345|
|         236|  5.2638e-03|   -9.927332|  -10.132650|   -0.000197|    0.002809|  5.0000e+02|   -5.904707|
|         237|  5.2637e-03|   -9.933690|  -10.135859|   -0.000197|    0.002809|  5.0000e+02|   -5.911066|
|         238|  5.2639e-03|   -9.940046|  -10.138982|   -0.000197|    0.002809|  5.0000e+02|   -5.917421|
|         239|  5.2639e-03|   -9.946399|  -10.142041|   -0.000198|    0.002809|  5.0000e+02|   -5.923774|
|         240|  5.2645e-03|   -9.952750|  -10.145050|   -0.000198|    0.002809|  5.0000e+02|   -5.930126|
|         241|  5.2646e-03|   -9.959100|  -10.148022|   -0.000198|    0.002809|  5.0000e+02|   -5.936476|
|         242|  5.2652e-03|   -9.965449|  -10.150968|   -0.000198|    0.002809|  5.0000e+02|   -5.942824|
|         243|  5.2659e-03|   -9.971797|  -10.153898|   -0.000198|    0.002809|  5.0000e+02|   -5.949173|
|         244|  5.2663e-03|   -9.978145|  -10.156817|   -0.000198|    0.002809|  5.0000e+02|   -5.955520|
|         245|  5.2667e-03|   -9.984493|  -10.159733|   -0.000198|    0.002809|  5.0000e+02|   -5.961868|
|         246|  5.2665e-03|   -9.990840|  -10.162650|   -0.000198|    0.002809|  5.0000e+02|   -5.968216|
|         247|  5.2664e-03|   -9.997188|  -10.165573|   -0.000198|    0.002809|  5.0000e+02|   -5.974564|
|         248|  5.2669e-03|  -10.003536|  -10.168504|   -0.000198|    0.002809|  5.0000e+02|   -5.980912|
|         249|  5.2678e-03|  -10.009885|  -10.171445|   -0.000198|    0.002809|  5.0000e+02|   -5.987261|
|         250|  5.2687e-03|  -10.016235|  -10.174399|   -0.000198|    0.002809|  5.0000e+02|   -5.993610|
+-----------------------------------------------------------------------+
|        File Writing Summary       |              Filename             |
+-----------------------------------------------------------------------+
|SU2 restart                        |restart.dat                        |
|                                   |                     (541.179 MB/s)|
|Paraview                           |vol_solution.vtu                   |
|                                   |                     (199.043 MB/s)|
|Paraview surface                   |surface.vtu                        |
|                                   |                     (13.6348 MB/s)|
+-----------------------------------------------------------------------+

Writing the forces breakdown file (forces_breakdown.dat).
+-------------------------------------------------------------------------------------------------------+
|  Inner_Iter|   Time(sec)|    rms[Rho]|   rms[RhoE]|          CL|          CD|     Avg CFL| relrms[Rho]|
+-------------------------------------------------------------------------------------------------------+
|         251|  5.2882e-03|  -10.022584|  -10.177367|   -0.000198|    0.002809|  5.0000e+02|   -5.999960|
|         252|  5.2881e-03|  -10.028935|  -10.180349|   -0.000198|    0.002809|  5.0000e+02|   -6.006310|
|         253|  5.2881e-03|  -10.035286|  -10.183346|   -0.000198|    0.002809|  5.0000e+02|   -6.012662|
|         254|  5.2879e-03|  -10.041638|  -10.186357|   -0.000198|    0.002809|  5.0000e+02|   -6.019013|
|         255|  5.2875e-03|  -10.047990|  -10.189384|   -0.000198|    0.002809|  5.0000e+02|   -6.025366|
|         256|  5.2876e-03|  -10.054343|  -10.192426|   -0.000198|    0.002809|  5.0000e+02|   -6.031719|
|         257|  5.2873e-03|  -10.060697|  -10.195484|   -0.000198|    0.002809|  5.0000e+02|   -6.038073|
|         258|  5.2872e-03|  -10.067052|  -10.198558|   -0.000198|    0.002809|  5.0000e+02|   -6.044427|
|         259|  5.2873e-03|  -10.073407|  -10.201649|   -0.000198|    0.002809|  5.0000e+02|   -6.050782|
|         260|  5.2876e-03|  -10.079763|  -10.204756|   -0.000198|    0.002809|  5.0000e+02|   -6.057138|
|         261|  5.2888e-03|  -10.086120|  -10.207883|   -0.000198|    0.002809|  5.0000e+02|   -6.063495|
|         262|  5.2894e-03|  -10.092478|  -10.211029|   -0.000198|    0.002809|  5.0000e+02|   -6.069853|
|         263|  5.2894e-03|  -10.098836|  -10.214197|   -0.000198|    0.002809|  5.0000e+02|   -6.076212|
|         264|  5.2899e-03|  -10.105196|  -10.217388|   -0.000198|    0.002809|  5.0000e+02|   -6.082571|
|         265|  5.2894e-03|  -10.111557|  -10.220603|   -0.000198|    0.002809|  5.0000e+02|   -6.088932|
|         266|  5.2893e-03|  -10.117919|  -10.223846|   -0.000198|    0.002809|  5.0000e+02|   -6.095294|
|         267|  5.2898e-03|  -10.124282|  -10.227116|   -0.000198|    0.002809|  5.0000e+02|   -6.101658|
|         268|  5.2894e-03|  -10.130647|  -10.230416|   -0.000198|    0.002809|  5.0000e+02|   -6.108023|
|         269|  5.2894e-03|  -10.137013|  -10.233746|   -0.000198|    0.002809|  5.0000e+02|   -6.114389|
|         270|  5.2898e-03|  -10.143381|  -10.237107|   -0.000198|    0.002809|  5.0000e+02|   -6.120756|
|         271|  5.2894e-03|  -10.149750|  -10.240500|   -0.000198|    0.002809|  5.0000e+02|   -6.127125|
|         272|  5.2892e-03|  -10.156120|  -10.243923|   -0.000198|    0.002809|  5.0000e+02|   -6.133496|
|         273|  5.2889e-03|  -10.162492|  -10.247377|   -0.000198|    0.002809|  5.0000e+02|   -6.139868|
|         274|  5.2886e-03|  -10.168866|  -10.250860|   -0.000198|    0.002809|  5.0000e+02|   -6.146241|
|         275|  5.2885e-03|  -10.175240|  -10.254373|   -0.000198|    0.002809|  5.0000e+02|   -6.152616|
|         276|  5.2883e-03|  -10.181616|  -10.257914|   -0.000198|    0.002809|  5.0000e+02|   -6.158991|
|         277|  5.2880e-03|  -10.187993|  -10.261481|   -0.000198|    0.002809|  5.0000e+02|   -6.165369|
|         278|  5.2877e-03|  -10.194371|  -10.265075|   -0.000198|    0.002809|  5.0000e+02|   -6.171747|
|         279|  5.2881e-03|  -10.200751|  -10.268694|   -0.000198|    0.002809|  5.0000e+02|   -6.178126|
|         280|  5.2881e-03|  -10.207131|  -10.272338|   -0.000198|    0.002809|  5.0000e+02|   -6.184506|
|         281|  5.2887e-03|  -10.213512|  -10.276006|   -0.000198|    0.002809|  5.0000e+02|   -6.190888|
|         282|  5.2884e-03|  -10.219895|  -10.279698|   -0.000198|    0.002809|  5.0000e+02|   -6.197270|
|         283|  5.2884e-03|  -10.226278|  -10.283414|   -0.000198|    0.002809|  5.0000e+02|   -6.203654|
|         284|  5.2878e-03|  -10.232662|  -10.287153|   -0.000198|    0.002809|  5.0000e+02|   -6.210038|
|         285|  5.2881e-03|  -10.239047|  -10.290916|   -0.000198|    0.002809|  5.0000e+02|   -6.216423|
|         286|  5.2882e-03|  -10.245434|  -10.294703|   -0.000198|    0.002809|  5.0000e+02|   -6.222809|
|         287|  5.2878e-03|  -10.251821|  -10.298515|   -0.000198|    0.002809|  5.0000e+02|   -6.229196|
|         288|  5.2876e-03|  -10.258209|  -10.302352|   -0.000198|    0.002809|  5.0000e+02|   -6.235584|
|         289|  5.2879e-03|  -10.264597|  -10.306213|   -0.000198|    0.002809|  5.0000e+02|   -6.241973|
|         290|  5.2876e-03|  -10.270987|  -10.310099|   -0.000198|    0.002809|  5.0000e+02|   -6.248363|
|         291|  5.2880e-03|  -10.277378|  -10.314011|   -0.000198|    0.002809|  5.0000e+02|   -6.254753|
|         292|  5.2882e-03|  -10.283770|  -10.317947|   -0.000198|    0.002809|  5.0000e+02|   -6.261145|
|         293|  5.2884e-03|  -10.290162|  -10.321909|   -0.000198|    0.002809|  5.0000e+02|   -6.267537|
|         294|  5.2890e-03|  -10.296555|  -10.325896|   -0.000198|    0.002809|  5.0000e+02|   -6.273931|
|         295|  5.2886e-03|  -10.302949|  -10.329906|   -0.000198|    0.002809|  5.0000e+02|   -6.280325|
|         296|  5.2888e-03|  -10.309344|  -10.333941|   -0.000198|    0.002809|  5.0000e+02|   -6.286719|
|         297|  5.2884e-03|  -10.315739|  -10.337999|   -0.000198|    0.002809|  5.0000e+02|   -6.293115|
|         298|  5.2889e-03|  -10.322135|  -10.342080|   -0.000198|    0.002809|  5.0000e+02|   -6.299511|
|         299|  5.2889e-03|  -10.328532|  -10.346184|   -0.000198|    0.002809|  5.0000e+02|   -6.305907|
|         300|  5.2892e-03|  -10.334929|  -10.350309|   -0.000198|    0.002809|  5.0000e+02|   -6.312304|
|         301|  5.2891e-03|  -10.341326|  -10.354457|   -0.000198|    0.002809|  5.0000e+02|   -6.318702|
|         302|  5.2895e-03|  -10.347724|  -10.358625|   -0.000198|    0.002809|  5.0000e+02|   -6.325100|
|         303|  5.2895e-03|  -10.354122|  -10.362815|   -0.000198|    0.002809|  5.0000e+02|   -6.331498|
|         304|  5.2897e-03|  -10.360521|  -10.367025|   -0.000198|    0.002809|  5.0000e+02|   -6.337896|
|         305|  5.2896e-03|  -10.366920|  -10.371256|   -0.000198|    0.002809|  5.0000e+02|   -6.344295|
|         306|  5.2894e-03|  -10.373319|  -10.375508|   -0.000198|    0.002809|  5.0000e+02|   -6.350694|
|         307|  5.2897e-03|  -10.379718|  -10.379780|   -0.000198|    0.002809|  5.0000e+02|   -6.357094|
|         308|  5.2899e-03|  -10.386117|  -10.384074|   -0.000198|    0.002809|  5.0000e+02|   -6.363493|
|         309|  5.2902e-03|  -10.392517|  -10.388388|   -0.000198|    0.002809|  5.0000e+02|   -6.369893|
|         310|  5.2905e-03|  -10.398917|  -10.392722|   -0.000198|    0.002809|  5.0000e+02|   -6.376292|
|         311|  5.2904e-03|  -10.405317|  -10.397078|   -0.000198|    0.002809|  5.0000e+02|   -6.382692|
|         312|  5.2905e-03|  -10.411717|  -10.401454|   -0.000198|    0.002809|  5.0000e+02|   -6.389092|
|         313|  5.2906e-03|  -10.418117|  -10.405852|   -0.000198|    0.002809|  5.0000e+02|   -6.395493|
|         314|  5.2905e-03|  -10.424517|  -10.410270|   -0.000198|    0.002809|  5.0000e+02|   -6.401893|
|         315|  5.2901e-03|  -10.430917|  -10.414709|   -0.000198|    0.002809|  5.0000e+02|   -6.408293|
|         316|  5.2902e-03|  -10.437318|  -10.419168|   -0.000198|    0.002809|  5.0000e+02|   -6.414693|
|         317|  5.2904e-03|  -10.443718|  -10.423648|   -0.000198|    0.002809|  5.0000e+02|   -6.421093|
|         318|  5.2908e-03|  -10.450118|  -10.428148|   -0.000198|    0.002809|  5.0000e+02|   -6.427493|
|         319|  5.2910e-03|  -10.456518|  -10.432668|   -0.000198|    0.002809|  5.0000e+02|   -6.433893|
|         320|  5.2908e-03|  -10.462917|  -10.437208|   -0.000198|    0.002809|  5.0000e+02|   -6.440293|
|         321|  5.2910e-03|  -10.469317|  -10.441768|   -0.000198|    0.002809|  5.0000e+02|   -6.446693|
|         322|  5.2908e-03|  -10.475716|  -10.446347|   -0.000198|    0.002809|  5.0000e+02|   -6.453092|
|         323|  5.2908e-03|  -10.482115|  -10.450945|   -0.000198|    0.002809|  5.0000e+02|   -6.459491|
|         324|  5.2901e-03|  -10.488514|  -10.455562|   -0.000198|    0.002809|  5.0000e+02|   -6.465889|
|         325|  5.2901e-03|  -10.494912|  -10.460199|   -0.000198|    0.002809|  5.0000e+02|   -6.472287|
|         326|  5.2903e-03|  -10.501310|  -10.464854|   -0.000198|    0.002809|  5.0000e+02|   -6.478685|
|         327|  5.2901e-03|  -10.507707|  -10.469528|   -0.000198|    0.002809|  5.0000e+02|   -6.485083|
|         328|  5.2902e-03|  -10.514104|  -10.474221|   -0.000198|    0.002809|  5.0000e+02|   -6.491479|
|         329|  5.2901e-03|  -10.520500|  -10.478933|   -0.000198|    0.002809|  5.0000e+02|   -6.497876|
|         330|  5.2899e-03|  -10.526896|  -10.483664|   -0.000198|    0.002809|  5.0000e+02|   -6.504272|
|         331|  5.2897e-03|  -10.533291|  -10.488414|   -0.000198|    0.002809|  5.0000e+02|   -6.510667|
|         332|  5.2899e-03|  -10.539686|  -10.493183|   -0.000198|    0.002809|  5.0000e+02|   -6.517062|
|         333|  5.2898e-03|  -10.546080|  -10.497970|   -0.000198|    0.002809|  5.0000e+02|   -6.523456|
|         334|  5.2897e-03|  -10.552474|  -10.502777|   -0.000198|    0.002809|  5.0000e+02|   -6.529849|
|         335|  5.2895e-03|  -10.558867|  -10.507602|   -0.000198|    0.002809|  5.0000e+02|   -6.536242|
|         336|  5.2893e-03|  -10.565259|  -10.512446|   -0.000198|    0.002809|  5.0000e+02|   -6.542634|
|         337|  5.2894e-03|  -10.571650|  -10.517310|   -0.000198|    0.002809|  5.0000e+02|   -6.549026|
|         338|  5.2900e-03|  -10.578041|  -10.522192|   -0.000198|    0.002809|  5.0000e+02|   -6.555417|
|         339|  5.2897e-03|  -10.584431|  -10.527093|   -0.000198|    0.002809|  5.0000e+02|   -6.561807|
|         340|  5.2898e-03|  -10.590820|  -10.532012|   -0.000198|    0.002809|  5.0000e+02|   -6.568196|
|         341|  5.2896e-03|  -10.597209|  -10.536950|   -0.000198|    0.002809|  5.0000e+02|   -6.574584|
|         342|  5.2897e-03|  -10.603596|  -10.541907|   -0.000198|    0.002809|  5.0000e+02|   -6.580972|
|         343|  5.2889e-03|  -10.609983|  -10.546883|   -0.000198|    0.002809|  5.0000e+02|   -6.587359|
|         344|  5.2891e-03|  -10.616369|  -10.551877|   -0.000198|    0.002809|  5.0000e+02|   -6.593745|
|         345|  5.2890e-03|  -10.622754|  -10.556890|   -0.000198|    0.002809|  5.0000e+02|   -6.600129|
|         346|  5.2893e-03|  -10.629138|  -10.561920|   -0.000198|    0.002809|  5.0000e+02|   -6.606513|
|         347|  5.2896e-03|  -10.635521|  -10.566970|   -0.000198|    0.002809|  5.0000e+02|   -6.612896|
|         348|  5.2896e-03|  -10.641903|  -10.572038|   -0.000198|    0.002809|  5.0000e+02|   -6.619278|
|         349|  5.2903e-03|  -10.648284|  -10.577124|   -0.000198|    0.002809|  5.0000e+02|   -6.625659|
|         350|  5.2904e-03|  -10.654664|  -10.582229|   -0.000198|    0.002809|  5.0000e+02|   -6.632039|
|         351|  5.2904e-03|  -10.661043|  -10.587352|   -0.000198|    0.002809|  5.0000e+02|   -6.638418|
|         352|  5.2899e-03|  -10.667420|  -10.592494|   -0.000198|    0.002809|  5.0000e+02|   -6.644796|
|         353|  5.2899e-03|  -10.673797|  -10.597654|   -0.000198|    0.002809|  5.0000e+02|   -6.651173|
|         354|  5.2900e-03|  -10.680172|  -10.602832|   -0.000198|    0.002809|  5.0000e+02|   -6.657548|
|         355|  5.2899e-03|  -10.686547|  -10.608030|   -0.000198|    0.002809|  5.0000e+02|   -6.663922|
|         356|  5.2906e-03|  -10.692920|  -10.613246|   -0.000198|    0.002809|  5.0000e+02|   -6.670296|
|         357|  5.2908e-03|  -10.699292|  -10.618480|   -0.000198|    0.002809|  5.0000e+02|   -6.676668|
|         358|  5.2903e-03|  -10.705663|  -10.623733|   -0.000198|    0.002809|  5.0000e+02|   -6.683039|
|         359|  5.2912e-03|  -10.712033|  -10.629005|   -0.000198|    0.002809|  5.0000e+02|   -6.689408|
|         360|  5.2912e-03|  -10.718401|  -10.634295|   -0.000198|    0.002809|  5.0000e+02|   -6.695777|
|         361|  5.2915e-03|  -10.724768|  -10.639604|   -0.000198|    0.002809|  5.0000e+02|   -6.702144|
|         362|  5.2912e-03|  -10.731134|  -10.644932|   -0.000198|    0.002809|  5.0000e+02|   -6.708510|
|         363|  5.2914e-03|  -10.737499|  -10.650278|   -0.000198|    0.002809|  5.0000e+02|   -6.714874|
|         364|  5.2911e-03|  -10.743862|  -10.655643|   -0.000198|    0.002809|  5.0000e+02|   -6.721238|
|         365|  5.2913e-03|  -10.750224|  -10.661027|   -0.000198|    0.002809|  5.0000e+02|   -6.727600|
|         366|  5.2911e-03|  -10.756585|  -10.666429|   -0.000198|    0.002809|  5.0000e+02|   -6.733960|
|         367|  5.2913e-03|  -10.762944|  -10.671850|   -0.000198|    0.002809|  5.0000e+02|   -6.740320|
|         368|  5.2915e-03|  -10.769302|  -10.677290|   -0.000198|    0.002809|  5.0000e+02|   -6.746678|
|         369|  5.2914e-03|  -10.775659|  -10.682749|   -0.000198|    0.002809|  5.0000e+02|   -6.753034|
|         370|  5.2919e-03|  -10.782014|  -10.688227|   -0.000198|    0.002809|  5.0000e+02|   -6.759389|
|         371|  5.2916e-03|  -10.788367|  -10.693723|   -0.000198|    0.002809|  5.0000e+02|   -6.765743|
|         372|  5.2915e-03|  -10.794720|  -10.699238|   -0.000198|    0.002809|  5.0000e+02|   -6.772095|
|         373|  5.2913e-03|  -10.801071|  -10.704772|   -0.000198|    0.002809|  5.0000e+02|   -6.778446|
|         374|  5.2916e-03|  -10.807420|  -10.710326|   -0.000198|    0.002809|  5.0000e+02|   -6.784795|
|         375|  5.2915e-03|  -10.813768|  -10.715898|   -0.000198|    0.002809|  5.0000e+02|   -6.791143|
|         376|  5.2917e-03|  -10.820114|  -10.721489|   -0.000198|    0.002809|  5.0000e+02|   -6.797490|
|         377|  5.2915e-03|  -10.826459|  -10.727100|   -0.000198|    0.002809|  5.0000e+02|   -6.803835|
|         378|  5.2919e-03|  -10.832803|  -10.732729|   -0.000198|    0.002809|  5.0000e+02|   -6.810178|
|         379|  5.2921e-03|  -10.839145|  -10.738378|   -0.000198|    0.002809|  5.0000e+02|   -6.816520|
|         380|  5.2922e-03|  -10.845485|  -10.744047|   -0.000198|    0.002809|  5.0000e+02|   -6.822860|
|         381|  5.2919e-03|  -10.851824|  -10.749734|   -0.000198|    0.002809|  5.0000e+02|   -6.829199|
|         382|  5.2919e-03|  -10.858161|  -10.755441|   -0.000198|    0.002809|  5.0000e+02|   -6.835537|
|         383|  5.2913e-03|  -10.864497|  -10.761167|   -0.000198|    0.002809|  5.0000e+02|   -6.841872|
|         384|  5.2912e-03|  -10.870831|  -10.766913|   -0.000198|    0.002809|  5.0000e+02|   -6.848207|
|         385|  5.2909e-03|  -10.877164|  -10.772678|   -0.000198|    0.002809|  5.0000e+02|   -6.854539|
|         386|  5.2907e-03|  -10.883495|  -10.778463|   -0.000198|    0.002809|  5.0000e+02|   -6.860870|
|         387|  5.2902e-03|  -10.889824|  -10.784267|   -0.000198|    0.002809|  5.0000e+02|   -6.867200|
|         388|  5.2903e-03|  -10.896152|  -10.790091|   -0.000198|    0.002809|  5.0000e+02|   -6.873527|
|         389|  5.2901e-03|  -10.902478|  -10.795934|   -0.000198|    0.002809|  5.0000e+02|   -6.879853|
|         390|  5.2902e-03|  -10.908802|  -10.801798|   -0.000198|    0.002809|  5.0000e+02|   -6.886178|
|         391|  5.2901e-03|  -10.915125|  -10.807681|   -0.000198|    0.002809|  5.0000e+02|   -6.892501|
|         392|  5.2897e-03|  -10.921447|  -10.813584|   -0.000198|    0.002809|  5.0000e+02|   -6.898822|
|         393|  5.2896e-03|  -10.927766|  -10.819507|   -0.000198|    0.002809|  5.0000e+02|   -6.905142|
|         394|  5.2896e-03|  -10.934084|  -10.825450|   -0.000198|    0.002809|  5.0000e+02|   -6.911460|
|         395|  5.2893e-03|  -10.940400|  -10.831413|   -0.000198|    0.002809|  5.0000e+02|   -6.917776|
|         396|  5.2897e-03|  -10.946715|  -10.837396|   -0.000198|    0.002809|  5.0000e+02|   -6.924090|
|         397|  5.2900e-03|  -10.953028|  -10.843400|   -0.000198|    0.002809|  5.0000e+02|   -6.930403|
|         398|  5.2901e-03|  -10.959339|  -10.849423|   -0.000198|    0.002809|  5.0000e+02|   -6.936714|
|         399|  5.2906e-03|  -10.965648|  -10.855467|   -0.000198|    0.002809|  5.0000e+02|   -6.943024|
|         400|  5.2905e-03|  -10.971956|  -10.861531|   -0.000198|    0.002809|  5.0000e+02|   -6.949332|
|         401|  5.2903e-03|  -10.978262|  -10.867616|   -0.000198|    0.002809|  5.0000e+02|   -6.955638|
|         402|  5.2903e-03|  -10.984567|  -10.873721|   -0.000198|    0.002809|  5.0000e+02|   -6.961942|
|         403|  5.2902e-03|  -10.990869|  -10.879847|   -0.000198|    0.002809|  5.0000e+02|   -6.968245|
|         404|  5.2901e-03|  -10.997170|  -10.885994|   -0.000198|    0.002809|  5.0000e+02|   -6.974546|
|         405|  5.2900e-03|  -11.003469|  -10.892160|   -0.000198|    0.002809|  5.0000e+02|   -6.980845|
|         406|  5.2901e-03|  -11.009766|  -10.898348|   -0.000198|    0.002809|  5.0000e+02|   -6.987142|
|         407|  5.2905e-03|  -11.016062|  -10.904557|   -0.000198|    0.002809|  5.0000e+02|   -6.993438|
|         408|  5.2904e-03|  -11.022356|  -10.910787|   -0.000198|    0.002809|  5.0000e+02|   -6.999731|
|         409|  5.2904e-03|  -11.028648|  -10.917038|   -0.000198|    0.002809|  5.0000e+02|   -7.006023|
|         410|  5.2901e-03|  -11.034938|  -10.923310|   -0.000198|    0.002809|  5.0000e+02|   -7.012314|
|         411|  5.2902e-03|  -11.041227|  -10.929602|   -0.000198|    0.002809|  5.0000e+02|   -7.018602|
|         412|  5.2898e-03|  -11.047514|  -10.935917|   -0.000198|    0.002809|  5.0000e+02|   -7.024889|
|         413|  5.2901e-03|  -11.053798|  -10.942252|   -0.000198|    0.002809|  5.0000e+02|   -7.031174|
|         414|  5.2899e-03|  -11.060082|  -10.948609|   -0.000198|    0.002809|  5.0000e+02|   -7.037457|
|         415|  5.2899e-03|  -11.066363|  -10.954988|   -0.000198|    0.002809|  5.0000e+02|   -7.043738|
|         416|  5.2900e-03|  -11.072642|  -10.961388|   -0.000198|    0.002809|  5.0000e+02|   -7.050018|
|         417|  5.2901e-03|  -11.078920|  -10.967809|   -0.000198|    0.002809|  5.0000e+02|   -7.056295|
|         418|  5.2902e-03|  -11.085196|  -10.974253|   -0.000198|    0.002809|  5.0000e+02|   -7.062571|
|         419|  5.2902e-03|  -11.091470|  -10.980719|   -0.000198|    0.002809|  5.0000e+02|   -7.068845|
|         420|  5.2901e-03|  -11.097742|  -10.987205|   -0.000198|    0.002809|  5.0000e+02|   -7.075118|
|         421|  5.2901e-03|  -11.104012|  -10.993714|   -0.000198|    0.002809|  5.0000e+02|   -7.081388|
|         422|  5.2900e-03|  -11.110281|  -11.000246|   -0.000198|    0.002809|  5.0000e+02|   -7.087656|
|         423|  5.2900e-03|  -11.116547|  -11.006799|   -0.000198|    0.002809|  5.0000e+02|   -7.093923|
|         424|  5.2900e-03|  -11.122812|  -11.013375|   -0.000198|    0.002809|  5.0000e+02|   -7.100188|
|         425|  5.2906e-03|  -11.129075|  -11.019974|   -0.000198|    0.002809|  5.0000e+02|   -7.106451|
|         426|  5.2906e-03|  -11.135336|  -11.026593|   -0.000198|    0.002809|  5.0000e+02|   -7.112712|
|         427|  5.2903e-03|  -11.141596|  -11.033237|   -0.000198|    0.002809|  5.0000e+02|   -7.118971|
|         428|  5.2905e-03|  -11.147853|  -11.039903|   -0.000198|    0.002809|  5.0000e+02|   -7.125228|
|         429|  5.2902e-03|  -11.154108|  -11.046592|   -0.000198|    0.002809|  5.0000e+02|   -7.131484|
|         430|  5.2905e-03|  -11.160362|  -11.053303|   -0.000198|    0.002809|  5.0000e+02|   -7.137737|
|         431|  5.2906e-03|  -11.166614|  -11.060038|   -0.000198|    0.002809|  5.0000e+02|   -7.143989|
|         432|  5.2909e-03|  -11.172863|  -11.066795|   -0.000198|    0.002809|  5.0000e+02|   -7.150239|
|         433|  5.2908e-03|  -11.179111|  -11.073576|   -0.000198|    0.002809|  5.0000e+02|   -7.156487|
|         434|  5.2915e-03|  -11.185357|  -11.080380|   -0.000198|    0.002809|  5.0000e+02|   -7.162733|
|         435|  5.2922e-03|  -11.191601|  -11.087207|   -0.000198|    0.002809|  5.0000e+02|   -7.168977|
|         436|  5.2927e-03|  -11.197843|  -11.094058|   -0.000198|    0.002809|  5.0000e+02|   -7.175219|
|         437|  5.2926e-03|  -11.204083|  -11.100932|   -0.000198|    0.002809|  5.0000e+02|   -7.181459|
|         438|  5.2929e-03|  -11.210322|  -11.107831|   -0.000198|    0.002809|  5.0000e+02|   -7.187697|
|         439|  5.2935e-03|  -11.216558|  -11.114752|   -0.000198|    0.002809|  5.0000e+02|   -7.193933|
|         440|  5.2941e-03|  -11.222792|  -11.121698|   -0.000198|    0.002809|  5.0000e+02|   -7.200168|
|         441|  5.2950e-03|  -11.229025|  -11.128668|   -0.000198|    0.002809|  5.0000e+02|   -7.206400|
|         442|  5.2951e-03|  -11.235255|  -11.135662|   -0.000198|    0.002809|  5.0000e+02|   -7.212631|
|         443|  5.2951e-03|  -11.241484|  -11.142680|   -0.000198|    0.002809|  5.0000e+02|   -7.218859|
|         444|  5.2949e-03|  -11.247710|  -11.149724|   -0.000198|    0.002809|  5.0000e+02|   -7.225086|
|         445|  5.2953e-03|  -11.253935|  -11.156791|   -0.000198|    0.002809|  5.0000e+02|   -7.231310|
|         446|  5.2954e-03|  -11.260157|  -11.163881|   -0.000198|    0.002809|  5.0000e+02|   -7.237533|
|         447|  5.2958e-03|  -11.266378|  -11.170998|   -0.000198|    0.002809|  5.0000e+02|   -7.243754|
|         448|  5.2960e-03|  -11.272597|  -11.178141|   -0.000198|    0.002809|  5.0000e+02|   -7.249972|
|         449|  5.2961e-03|  -11.278813|  -11.185306|   -0.000198|    0.002809|  5.0000e+02|   -7.256189|
|         450|  5.2965e-03|  -11.285028|  -11.192498|   -0.000198|    0.002809|  5.0000e+02|   -7.262404|
|         451|  5.2964e-03|  -11.291241|  -11.199714|   -0.000198|    0.002809|  5.0000e+02|   -7.268616|
|         452|  5.2963e-03|  -11.297451|  -11.206955|   -0.000198|    0.002809|  5.0000e+02|   -7.274827|
|         453|  5.2965e-03|  -11.303660|  -11.214224|   -0.000198|    0.002809|  5.0000e+02|   -7.281035|
|         454|  5.2963e-03|  -11.309866|  -11.221517|   -0.000198|    0.002809|  5.0000e+02|   -7.287242|
|         455|  5.2967e-03|  -11.316071|  -11.228835|   -0.000198|    0.002809|  5.0000e+02|   -7.293446|
|         456|  5.2967e-03|  -11.322274|  -11.236181|   -0.000198|    0.002809|  5.0000e+02|   -7.299649|
|         457|  5.2968e-03|  -11.328474|  -11.243551|   -0.000198|    0.002809|  5.0000e+02|   -7.305850|
|         458|  5.2968e-03|  -11.334672|  -11.250948|   -0.000198|    0.002809|  5.0000e+02|   -7.312048|
|         459|  5.2970e-03|  -11.340869|  -11.258370|   -0.000198|    0.002809|  5.0000e+02|   -7.318244|
|         460|  5.2974e-03|  -11.347063|  -11.265821|   -0.000198|    0.002809|  5.0000e+02|   -7.324439|
|         461|  5.2973e-03|  -11.353255|  -11.273295|   -0.000198|    0.002809|  5.0000e+02|   -7.330631|
|         462|  5.2981e-03|  -11.359446|  -11.280799|   -0.000198|    0.002809|  5.0000e+02|   -7.336821|
|         463|  5.2982e-03|  -11.365634|  -11.288329|   -0.000198|    0.002809|  5.0000e+02|   -7.343009|
|         464|  5.2985e-03|  -11.371820|  -11.295883|   -0.000198|    0.002809|  5.0000e+02|   -7.349195|
|         465|  5.2987e-03|  -11.378004|  -11.303467|   -0.000198|    0.002809|  5.0000e+02|   -7.355379|
|         466|  5.2987e-03|  -11.384186|  -11.311078|   -0.000198|    0.002809|  5.0000e+02|   -7.361561|
|         467|  5.2986e-03|  -11.390365|  -11.318715|   -0.000198|    0.002809|  5.0000e+02|   -7.367741|
|         468|  5.2988e-03|  -11.396543|  -11.326382|   -0.000198|    0.002809|  5.0000e+02|   -7.373919|
|         469|  5.2989e-03|  -11.402719|  -11.334073|   -0.000198|    0.002809|  5.0000e+02|   -7.380094|
|         470|  5.2989e-03|  -11.408892|  -11.341794|   -0.000198|    0.002809|  5.0000e+02|   -7.386268|
|         471|  5.2988e-03|  -11.415063|  -11.349541|   -0.000198|    0.002809|  5.0000e+02|   -7.392439|
|         472|  5.2991e-03|  -11.421233|  -11.357318|   -0.000198|    0.002809|  5.0000e+02|   -7.398608|
|         473|  5.2999e-03|  -11.427400|  -11.365122|   -0.000198|    0.002809|  5.0000e+02|   -7.404775|
|         474|  5.3002e-03|  -11.433565|  -11.372955|   -0.000198|    0.002809|  5.0000e+02|   -7.410940|
|         475|  5.3007e-03|  -11.439727|  -11.380815|   -0.000198|    0.002809|  5.0000e+02|   -7.417103|
|         476|  5.3007e-03|  -11.445888|  -11.388706|   -0.000198|    0.002809|  5.0000e+02|   -7.423263|
|         477|  5.3011e-03|  -11.452046|  -11.396623|   -0.000198|    0.002809|  5.0000e+02|   -7.429422|
|         478|  5.3009e-03|  -11.458203|  -11.404571|   -0.000198|    0.002809|  5.0000e+02|   -7.435578|
|         479|  5.3011e-03|  -11.464357|  -11.412546|   -0.000198|    0.002809|  5.0000e+02|   -7.441732|
|         480|  5.3009e-03|  -11.470509|  -11.420551|   -0.000198|    0.002809|  5.0000e+02|   -7.447884|
|         481|  5.3012e-03|  -11.476658|  -11.428584|   -0.000198|    0.002809|  5.0000e+02|   -7.454034|
|         482|  5.3015e-03|  -11.482806|  -11.436651|   -0.000198|    0.002809|  5.0000e+02|   -7.460182|
|         483|  5.3019e-03|  -11.488951|  -11.444740|   -0.000198|    0.002809|  5.0000e+02|   -7.466327|
|         484|  5.3017e-03|  -11.495095|  -11.452865|   -0.000198|    0.002809|  5.0000e+02|   -7.472471|
|         485|  5.3014e-03|  -11.501236|  -11.461014|   -0.000198|    0.002809|  5.0000e+02|   -7.478611|
|         486|  5.3014e-03|  -11.507375|  -11.469200|   -0.000198|    0.002809|  5.0000e+02|   -7.484750|
|         487|  5.3015e-03|  -11.513511|  -11.477406|   -0.000198|    0.002809|  5.0000e+02|   -7.490887|
|         488|  5.3015e-03|  -11.519646|  -11.485650|   -0.000198|    0.002809|  5.0000e+02|   -7.497021|
|         489|  5.3012e-03|  -11.525778|  -11.493918|   -0.000198|    0.002809|  5.0000e+02|   -7.503153|
|         490|  5.3010e-03|  -11.531908|  -11.502224|   -0.000198|    0.002809|  5.0000e+02|   -7.509284|
|         491|  5.3008e-03|  -11.538036|  -11.510552|   -0.000198|    0.002809|  5.0000e+02|   -7.515411|
|         492|  5.3012e-03|  -11.544161|  -11.518915|   -0.000198|    0.002809|  5.0000e+02|   -7.521537|
|         493|  5.3014e-03|  -11.550285|  -11.527310|   -0.000198|    0.002809|  5.0000e+02|   -7.527660|
|         494|  5.3014e-03|  -11.556405|  -11.535730|   -0.000198|    0.002809|  5.0000e+02|   -7.533781|
|         495|  5.3012e-03|  -11.562524|  -11.544184|   -0.000198|    0.002809|  5.0000e+02|   -7.539900|
|         496|  5.3012e-03|  -11.568641|  -11.552671|   -0.000198|    0.002809|  5.0000e+02|   -7.546017|
|         497|  5.3008e-03|  -11.574755|  -11.561183|   -0.000198|    0.002809|  5.0000e+02|   -7.552131|
|         498|  5.3012e-03|  -11.580867|  -11.569729|   -0.000198|    0.002809|  5.0000e+02|   -7.558243|
|         499|  5.3007e-03|  -11.586977|  -11.578306|   -0.000198|    0.002809|  5.0000e+02|   -7.564353|
|         500|  5.3010e-03|  -11.593085|  -11.586911|   -0.000198|    0.002809|  5.0000e+02|   -7.570460|
+-----------------------------------------------------------------------+
|        File Writing Summary       |              Filename             |
+-----------------------------------------------------------------------+
|SU2 restart                        |restart.dat                        |
|                                   |                     (632.195 MB/s)|
|Paraview                           |vol_solution.vtu                   |
|                                   |                     (210.272 MB/s)|
|Paraview surface                   |surface.vtu                        |
|                                   |                     (12.8423 MB/s)|
+-----------------------------------------------------------------------+

Writing the forces breakdown file (forces_breakdown.dat).
+-------------------------------------------------------------------------------------------------------+
|  Inner_Iter|   Time(sec)|    rms[Rho]|   rms[RhoE]|          CL|          CD|     Avg CFL| relrms[Rho]|
+-------------------------------------------------------------------------------------------------------+
|         501|  5.3069e-03|  -11.599191|  -11.595553|   -0.000198|    0.002809|  5.0000e+02|   -7.576566|
|         502|  5.3070e-03|  -11.605293|  -11.604219|   -0.000198|    0.002809|  5.0000e+02|   -7.582669|
|         503|  5.3073e-03|  -11.611395|  -11.612922|   -0.000198|    0.002809|  5.0000e+02|   -7.588770|
|         504|  5.3071e-03|  -11.617493|  -11.621649|   -0.000198|    0.002809|  5.0000e+02|   -7.594868|
|         505|  5.3073e-03|  -11.623589|  -11.630410|   -0.000198|    0.002809|  5.0000e+02|   -7.600965|
|         506|  5.3070e-03|  -11.629684|  -11.639205|   -0.000198|    0.002809|  5.0000e+02|   -7.607059|
|         507|  5.3069e-03|  -11.635775|  -11.648023|   -0.000198|    0.002809|  5.0000e+02|   -7.613151|
|         508|  5.3066e-03|  -11.641865|  -11.656879|   -0.000198|    0.002809|  5.0000e+02|   -7.619241|
|         509|  5.3068e-03|  -11.647952|  -11.665759|   -0.000198|    0.002809|  5.0000e+02|   -7.625328|
|         510|  5.3066e-03|  -11.654038|  -11.674676|   -0.000198|    0.002809|  5.0000e+02|   -7.631413|
|         511|  5.3068e-03|  -11.660120|  -11.683620|   -0.000198|    0.002809|  5.0000e+02|   -7.637496|
|         512|  5.3071e-03|  -11.666201|  -11.692592|   -0.000198|    0.002809|  5.0000e+02|   -7.643576|
|         513|  5.3071e-03|  -11.672280|  -11.701600|   -0.000198|    0.002809|  5.0000e+02|   -7.649655|
|         514|  5.3073e-03|  -11.678355|  -11.710629|   -0.000198|    0.002809|  5.0000e+02|   -7.655731|
|         515|  5.3072e-03|  -11.684429|  -11.719695|   -0.000198|    0.002809|  5.0000e+02|   -7.661805|
|         516|  5.3071e-03|  -11.690501|  -11.728788|   -0.000198|    0.002809|  5.0000e+02|   -7.667877|
|         517|  5.3069e-03|  -11.696570|  -11.737907|   -0.000198|    0.002809|  5.0000e+02|   -7.673946|
|         518|  5.3067e-03|  -11.702638|  -11.747054|   -0.000198|    0.002809|  5.0000e+02|   -7.680013|
|         519|  5.3063e-03|  -11.708703|  -11.756236|   -0.000198|    0.002809|  5.0000e+02|   -7.686078|
|         520|  5.3067e-03|  -11.714765|  -11.765439|   -0.000198|    0.002809|  5.0000e+02|   -7.692141|
|         521|  5.3065e-03|  -11.720826|  -11.774678|   -0.000198|    0.002809|  5.0000e+02|   -7.698202|
|         522|  5.3065e-03|  -11.726884|  -11.783932|   -0.000198|    0.002809|  5.0000e+02|   -7.704260|
|         523|  5.3067e-03|  -11.732941|  -11.793223|   -0.000198|    0.002809|  5.0000e+02|   -7.710316|
|         524|  5.3070e-03|  -11.738994|  -11.802529|   -0.000198|    0.002809|  5.0000e+02|   -7.716370|
|         525|  5.3073e-03|  -11.745046|  -11.811875|   -0.000198|    0.002809|  5.0000e+02|   -7.722422|
|         526|  5.3077e-03|  -11.751096|  -11.821233|   -0.000198|    0.002809|  5.0000e+02|   -7.728471|
|         527|  5.3075e-03|  -11.757143|  -11.830619|   -0.000198|    0.002809|  5.0000e+02|   -7.734519|
|         528|  5.3075e-03|  -11.763188|  -11.840027|   -0.000198|    0.002809|  5.0000e+02|   -7.740564|
|         529|  5.3076e-03|  -11.769232|  -11.849463|   -0.000198|    0.002809|  5.0000e+02|   -7.746607|
|         530|  5.3075e-03|  -11.775272|  -11.858917|   -0.000198|    0.002809|  5.0000e+02|   -7.752648|
|         531|  5.3074e-03|  -11.781311|  -11.868391|   -0.000198|    0.002809|  5.0000e+02|   -7.758687|
|         532|  5.3079e-03|  -11.787348|  -11.877881|   -0.000198|    0.002809|  5.0000e+02|   -7.764723|
|         533|  5.3078e-03|  -11.793383|  -11.887398|   -0.000198|    0.002809|  5.0000e+02|   -7.770758|
|         534|  5.3080e-03|  -11.799415|  -11.896922|   -0.000198|    0.002809|  5.0000e+02|   -7.776790|
|         535|  5.3081e-03|  -11.805446|  -11.906473|   -0.000198|    0.002809|  5.0000e+02|   -7.782821|
|         536|  5.3077e-03|  -11.811474|  -11.916029|   -0.000198|    0.002809|  5.0000e+02|   -7.788849|
|         537|  5.3079e-03|  -11.817500|  -11.925609|   -0.000198|    0.002809|  5.0000e+02|   -7.794876|
|         538|  5.3077e-03|  -11.823524|  -11.935184|   -0.000198|    0.002809|  5.0000e+02|   -7.800899|
|         539|  5.3075e-03|  -11.829547|  -11.944796|   -0.000198|    0.002809|  5.0000e+02|   -7.806922|
|         540|  5.3074e-03|  -11.835566|  -11.954387|   -0.000198|    0.002809|  5.0000e+02|   -7.812942|
|         541|  5.3075e-03|  -11.841585|  -11.964000|   -0.000198|    0.002809|  5.0000e+02|   -7.818960|
|         542|  5.3075e-03|  -11.847601|  -11.973623|   -0.000198|    0.002809|  5.0000e+02|   -7.824976|
|         543|  5.3079e-03|  -11.853615|  -11.983241|   -0.000198|    0.002809|  5.0000e+02|   -7.830991|
|         544|  5.3076e-03|  -11.859627|  -11.992860|   -0.000198|    0.002809|  5.0000e+02|   -7.837003|
|         545|  5.3076e-03|  -11.865638|  -12.002480|   -0.000198|    0.002809|  5.0000e+02|   -7.843013|
|         546|  5.3073e-03|  -11.871646|  -12.012098|   -0.000198|    0.002809|  5.0000e+02|   -7.849022|
|         547|  5.3076e-03|  -11.877653|  -12.021703|   -0.000198|    0.002809|  5.0000e+02|   -7.855028|
|         548|  5.3077e-03|  -11.883657|  -12.031311|   -0.000198|    0.002809|  5.0000e+02|   -7.861033|
|         549|  5.3079e-03|  -11.889660|  -12.040891|   -0.000198|    0.002809|  5.0000e+02|   -7.867035|
|         550|  5.3079e-03|  -11.895661|  -12.050475|   -0.000198|    0.002809|  5.0000e+02|   -7.873037|
|         551|  5.3081e-03|  -11.901660|  -12.060030|   -0.000198|    0.002809|  5.0000e+02|   -7.879036|
|         552|  5.3099e-03|  -11.907657|  -12.069563|   -0.000198|    0.002809|  5.0000e+02|   -7.885033|
|         553|  5.3103e-03|  -11.913653|  -12.079091|   -0.000198|    0.002809|  5.0000e+02|   -7.891029|
|         554|  5.3106e-03|  -11.919647|  -12.088565|   -0.000198|    0.002809|  5.0000e+02|   -7.897022|
|         555|  5.3105e-03|  -11.925639|  -12.098027|   -0.000198|    0.002809|  5.0000e+02|   -7.903015|
|         556|  5.3105e-03|  -11.931630|  -12.107456|   -0.000198|    0.002809|  5.0000e+02|   -7.909005|
|         557|  5.3104e-03|  -11.937618|  -12.116824|   -0.000198|    0.002809|  5.0000e+02|   -7.914994|
|         558|  5.3102e-03|  -11.943606|  -12.126177|   -0.000198|    0.002809|  5.0000e+02|   -7.920981|
|         559|  5.3101e-03|  -11.949591|  -12.135472|   -0.000198|    0.002809|  5.0000e+02|   -7.926967|
|         560|  5.3104e-03|  -11.955575|  -12.144709|   -0.000198|    0.002809|  5.0000e+02|   -7.932950|
|         561|  5.3099e-03|  -11.961558|  -12.153910|   -0.000198|    0.002809|  5.0000e+02|   -7.938933|
|         562|  5.3100e-03|  -11.967538|  -12.163036|   -0.000198|    0.002809|  5.0000e+02|   -7.944914|
|         563|  5.3098e-03|  -11.973518|  -12.172108|   -0.000198|    0.002809|  5.0000e+02|   -7.950893|
|         564|  5.3097e-03|  -11.979496|  -12.181105|   -0.000198|    0.002809|  5.0000e+02|   -7.956871|
|         565|  5.3096e-03|  -11.985472|  -12.190036|   -0.000198|    0.002809|  5.0000e+02|   -7.962848|
|         566|  5.3099e-03|  -11.991447|  -12.198878|   -0.000198|    0.002809|  5.0000e+02|   -7.968823|
|         567|  5.3098e-03|  -11.997421|  -12.207650|   -0.000198|    0.002809|  5.0000e+02|   -7.974796|
|         568|  5.3099e-03|  -12.003394|  -12.216340|   -0.000198|    0.002809|  5.0000e+02|   -7.980769|
|         569|  5.3100e-03|  -12.009364|  -12.224914|   -0.000198|    0.002809|  5.0000e+02|   -7.986740|
|         570|  5.3100e-03|  -12.015334|  -12.233404|   -0.000198|    0.002809|  5.0000e+02|   -7.992710|
|         571|  5.3102e-03|  -12.021303|  -12.241795|   -0.000198|    0.002809|  5.0000e+02|   -7.998678|
|         572|  5.3107e-03|  -12.027270|  -12.250075|   -0.000198|    0.002809|  5.0000e+02|   -8.004646|
|         573|  5.3108e-03|  -12.033236|  -12.258242|   -0.000198|    0.002809|  5.0000e+02|   -8.010612|
|         574|  5.3112e-03|  -12.039201|  -12.266296|   -0.000198|    0.002809|  5.0000e+02|   -8.016577|
|         575|  5.3112e-03|  -12.045165|  -12.274231|   -0.000198|    0.002809|  5.0000e+02|   -8.022541|
|         576|  5.3113e-03|  -12.051128|  -12.282021|   -0.000198|    0.002809|  5.0000e+02|   -8.028503|
|         577|  5.3117e-03|  -12.057090|  -12.289704|   -0.000198|    0.002809|  5.0000e+02|   -8.034465|
|         578|  5.3114e-03|  -12.063051|  -12.297247|   -0.000198|    0.002809|  5.0000e+02|   -8.040426|
|         579|  5.3117e-03|  -12.069011|  -12.304641|   -0.000198|    0.002809|  5.0000e+02|   -8.046386|
|         580|  5.3117e-03|  -12.074970|  -12.311909|   -0.000198|    0.002809|  5.0000e+02|   -8.052345|
|         581|  5.3117e-03|  -12.080928|  -12.319027|   -0.000198|    0.002809|  5.0000e+02|   -8.058304|
|         582|  5.3119e-03|  -12.086885|  -12.325985|   -0.000198|    0.002809|  5.0000e+02|   -8.064261|
|         583|  5.3119e-03|  -12.092842|  -12.332813|   -0.000198|    0.002809|  5.0000e+02|   -8.070218|
|         584|  5.3116e-03|  -12.098798|  -12.339464|   -0.000198|    0.002809|  5.0000e+02|   -8.076173|
|         585|  5.3117e-03|  -12.104753|  -12.345980|   -0.000198|    0.002809|  5.0000e+02|   -8.082129|
|         586|  5.3119e-03|  -12.110708|  -12.352321|   -0.000198|    0.002809|  5.0000e+02|   -8.088083|
|         587|  5.3116e-03|  -12.116662|  -12.358520|   -0.000198|    0.002809|  5.0000e+02|   -8.094038|
|         588|  5.3124e-03|  -12.122615|  -12.364546|   -0.000198|    0.002809|  5.0000e+02|   -8.099991|
|         589|  5.3124e-03|  -12.128568|  -12.370416|   -0.000198|    0.002809|  5.0000e+02|   -8.105944|
|         590|  5.3123e-03|  -12.134521|  -12.376117|   -0.000198|    0.002809|  5.0000e+02|   -8.111896|
|         591|  5.3122e-03|  -12.140473|  -12.381675|   -0.000198|    0.002809|  5.0000e+02|   -8.117849|
|         592|  5.3134e-03|  -12.146425|  -12.387049|   -0.000198|    0.002809|  5.0000e+02|   -8.123800|
|         593|  5.3134e-03|  -12.152376|  -12.392284|   -0.000198|    0.002809|  5.0000e+02|   -8.129752|
|         594|  5.3135e-03|  -12.158327|  -12.397341|   -0.000198|    0.002809|  5.0000e+02|   -8.135703|
|         595|  5.3133e-03|  -12.164278|  -12.402261|   -0.000198|    0.002809|  5.0000e+02|   -8.141654|
|         596|  5.3134e-03|  -12.170229|  -12.407011|   -0.000198|    0.002809|  5.0000e+02|   -8.147604|
|         597|  5.3133e-03|  -12.176180|  -12.411628|   -0.000198|    0.002809|  5.0000e+02|   -8.153555|
|         598|  5.3133e-03|  -12.182130|  -12.416077|   -0.000198|    0.002809|  5.0000e+02|   -8.159506|
|         599|  5.3135e-03|  -12.188081|  -12.420389|   -0.000198|    0.002809|  5.0000e+02|   -8.165457|
|         600|  5.3137e-03|  -12.194032|  -12.424549|   -0.000198|    0.002809|  5.0000e+02|   -8.171407|
|         601|  5.3136e-03|  -12.199983|  -12.428590|   -0.000198|    0.002809|  5.0000e+02|   -8.177358|
|         602|  5.3137e-03|  -12.205933|  -12.432473|   -0.000198|    0.002809|  5.0000e+02|   -8.183309|
|         603|  5.3137e-03|  -12.211884|  -12.436231|   -0.000198|    0.002809|  5.0000e+02|   -8.189260|
|         604|  5.3138e-03|  -12.217836|  -12.439875|   -0.000198|    0.002809|  5.0000e+02|   -8.195211|
|         605|  5.3139e-03|  -12.223787|  -12.443374|   -0.000198|    0.002809|  5.0000e+02|   -8.201163|
|         606|  5.3137e-03|  -12.229739|  -12.446770|   -0.000198|    0.002809|  5.0000e+02|   -8.207115|
|         607|  5.3139e-03|  -12.235692|  -12.450052|   -0.000198|    0.002809|  5.0000e+02|   -8.213068|
|         608|  5.3138e-03|  -12.241645|  -12.453219|   -0.000198|    0.002809|  5.0000e+02|   -8.219020|
|         609|  5.3139e-03|  -12.247598|  -12.456288|   -0.000198|    0.002809|  5.0000e+02|   -8.224974|
|         610|  5.3138e-03|  -12.253552|  -12.459251|   -0.000198|    0.002809|  5.0000e+02|   -8.230928|
|         611|  5.3140e-03|  -12.259507|  -12.462128|   -0.000198|    0.002809|  5.0000e+02|   -8.236882|
|         612|  5.3137e-03|  -12.265462|  -12.464912|   -0.000198|    0.002809|  5.0000e+02|   -8.242838|
|         613|  5.3139e-03|  -12.271418|  -12.467605|   -0.000198|    0.002809|  5.0000e+02|   -8.248793|
|         614|  5.3136e-03|  -12.277375|  -12.470232|   -0.000198|    0.002809|  5.0000e+02|   -8.254751|
|         615|  5.3136e-03|  -12.283333|  -12.472784|   -0.000198|    0.002809|  5.0000e+02|   -8.260709|
|         616|  5.3136e-03|  -12.289292|  -12.475254|   -0.000198|    0.002809|  5.0000e+02|   -8.266667|
|         617|  5.3141e-03|  -12.295251|  -12.477666|   -0.000198|    0.002809|  5.0000e+02|   -8.272627|
|         618|  5.3142e-03|  -12.301212|  -12.480012|   -0.000198|    0.002809|  5.0000e+02|   -8.278588|
|         619|  5.3143e-03|  -12.307174|  -12.482320|   -0.000198|    0.002809|  5.0000e+02|   -8.284550|
|         620|  5.3144e-03|  -12.313137|  -12.484549|   -0.000198|    0.002809|  5.0000e+02|   -8.290513|
|         621|  5.3144e-03|  -12.319101|  -12.486742|   -0.000198|    0.002809|  5.0000e+02|   -8.296477|
|         622|  5.3145e-03|  -12.325067|  -12.488915|   -0.000198|    0.002809|  5.0000e+02|   -8.302443|
|         623|  5.3144e-03|  -12.331034|  -12.491012|   -0.000198|    0.002809|  5.0000e+02|   -8.308409|
|         624|  5.3146e-03|  -12.337002|  -12.493089|   -0.000198|    0.002809|  5.0000e+02|   -8.314378|
|         625|  5.3145e-03|  -12.342972|  -12.495135|   -0.000198|    0.002809|  5.0000e+02|   -8.320348|
|         626|  5.3147e-03|  -12.348944|  -12.497157|   -0.000198|    0.002809|  5.0000e+02|   -8.326319|
|         627|  5.3148e-03|  -12.354917|  -12.499161|   -0.000198|    0.002809|  5.0000e+02|   -8.332292|
|         628|  5.3152e-03|  -12.360891|  -12.501116|   -0.000198|    0.002809|  5.0000e+02|   -8.338267|
|         629|  5.3148e-03|  -12.366868|  -12.503075|   -0.000198|    0.002809|  5.0000e+02|   -8.344243|
|         630|  5.3150e-03|  -12.372846|  -12.505012|   -0.000198|    0.002809|  5.0000e+02|   -8.350221|
|         631|  5.3148e-03|  -12.378826|  -12.506930|   -0.000198|    0.002809|  5.0000e+02|   -8.356201|
|         632|  5.3148e-03|  -12.384808|  -12.508851|   -0.000198|    0.002809|  5.0000e+02|   -8.362183|
|         633|  5.3145e-03|  -12.390792|  -12.510760|   -0.000198|    0.002809|  5.0000e+02|   -8.368167|
|         634|  5.3147e-03|  -12.396778|  -12.512663|   -0.000198|    0.002809|  5.0000e+02|   -8.374153|
|         635|  5.3146e-03|  -12.402766|  -12.514571|   -0.000198|    0.002809|  5.0000e+02|   -8.380141|
|         636|  5.3147e-03|  -12.408756|  -12.516481|   -0.000198|    0.002809|  5.0000e+02|   -8.386132|
|         637|  5.3149e-03|  -12.414748|  -12.518374|   -0.000198|    0.002809|  5.0000e+02|   -8.392124|
|         638|  5.3148e-03|  -12.420743|  -12.520286|   -0.000198|    0.002809|  5.0000e+02|   -8.398119|
|         639|  5.3147e-03|  -12.426740|  -12.522200|   -0.000198|    0.002809|  5.0000e+02|   -8.404116|
|         640|  5.3148e-03|  -12.432741|  -12.524137|   -0.000198|    0.002809|  5.0000e+02|   -8.410116|
|         641|  5.3150e-03|  -12.438742|  -12.526073|   -0.000198|    0.002809|  5.0000e+02|   -8.416118|
|         642|  5.3150e-03|  -12.444747|  -12.528008|   -0.000198|    0.002809|  5.0000e+02|   -8.422123|
|         643|  5.3147e-03|  -12.450755|  -12.529982|   -0.000198|    0.002809|  5.0000e+02|   -8.428130|
|         644|  5.3146e-03|  -12.456765|  -12.531955|   -0.000198|    0.002809|  5.0000e+02|   -8.434141|
|         645|  5.3150e-03|  -12.462777|  -12.533928|   -0.000198|    0.002809|  5.0000e+02|   -8.440153|
|         646|  5.3148e-03|  -12.468793|  -12.535942|   -0.000198|    0.002809|  5.0000e+02|   -8.446169|
|         647|  5.3151e-03|  -12.474812|  -12.537972|   -0.000198|    0.002809|  5.0000e+02|   -8.452187|
|         648|  5.3150e-03|  -12.480833|  -12.540011|   -0.000198|    0.002809|  5.0000e+02|   -8.458209|
|         649|  5.3150e-03|  -12.486858|  -12.542082|   -0.000198|    0.002809|  5.0000e+02|   -8.464233|
|         650|  5.3149e-03|  -12.492885|  -12.544154|   -0.000198|    0.002809|  5.0000e+02|   -8.470260|
|         651|  5.3150e-03|  -12.498916|  -12.546272|   -0.000198|    0.002809|  5.0000e+02|   -8.476292|
|         652|  5.3149e-03|  -12.504950|  -12.548399|   -0.000198|    0.002809|  5.0000e+02|   -8.482326|
|         653|  5.3152e-03|  -12.510988|  -12.550563|   -0.000198|    0.002809|  5.0000e+02|   -8.488363|
|         654|  5.3151e-03|  -12.517029|  -12.552748|   -0.000198|    0.002809|  5.0000e+02|   -8.494404|
|         655|  5.3154e-03|  -12.523073|  -12.554957|   -0.000198|    0.002809|  5.0000e+02|   -8.500449|
|         656|  5.3154e-03|  -12.529121|  -12.557193|   -0.000198|    0.002809|  5.0000e+02|   -8.506497|
|         657|  5.3154e-03|  -12.535171|  -12.559440|   -0.000198|    0.002809|  5.0000e+02|   -8.512547|
|         658|  5.3153e-03|  -12.541226|  -12.561720|   -0.000198|    0.002809|  5.0000e+02|   -8.518602|
|         659|  5.3152e-03|  -12.547285|  -12.564042|   -0.000198|    0.002809|  5.0000e+02|   -8.524661|
|         660|  5.3152e-03|  -12.553348|  -12.566393|   -0.000198|    0.002809|  5.0000e+02|   -8.530724|
|         661|  5.3152e-03|  -12.559413|  -12.568745|   -0.000198|    0.002809|  5.0000e+02|   -8.536789|
|         662|  5.3154e-03|  -12.565484|  -12.571155|   -0.000198|    0.002809|  5.0000e+02|   -8.542860|
|         663|  5.3153e-03|  -12.571558|  -12.573574|   -0.000198|    0.002809|  5.0000e+02|   -8.548933|
|         664|  5.3155e-03|  -12.577635|  -12.576020|   -0.000198|    0.002809|  5.0000e+02|   -8.555011|
|         665|  5.3156e-03|  -12.583719|  -12.578536|   -0.000198|    0.002809|  5.0000e+02|   -8.561095|
|         666|  5.3158e-03|  -12.589803|  -12.581021|   -0.000198|    0.002809|  5.0000e+02|   -8.567179|
|         667|  5.3158e-03|  -12.595896|  -12.583584|   -0.000198|    0.002809|  5.0000e+02|   -8.573271|
|         668|  5.3160e-03|  -12.601990|  -12.586163|   -0.000198|    0.002809|  5.0000e+02|   -8.579366|
|         669|  5.3158e-03|  -12.608089|  -12.588760|   -0.000198|    0.002809|  5.0000e+02|   -8.585465|
|         670|  5.3160e-03|  -12.614193|  -12.591402|   -0.000198|    0.002809|  5.0000e+02|   -8.591569|
|         671|  5.3157e-03|  -12.620301|  -12.594070|   -0.000198|    0.002809|  5.0000e+02|   -8.597677|
|         672|  5.3158e-03|  -12.626414|  -12.596770|   -0.000198|    0.002809|  5.0000e+02|   -8.603790|
|         673|  5.3158e-03|  -12.632532|  -12.599508|   -0.000198|    0.002809|  5.0000e+02|   -8.609908|
|         674|  5.3159e-03|  -12.638654|  -12.602262|   -0.000198|    0.002809|  5.0000e+02|   -8.616030|
|         675|  5.3160e-03|  -12.644781|  -12.605060|   -0.000198|    0.002809|  5.0000e+02|   -8.622156|
|         676|  5.3159e-03|  -12.650913|  -12.607878|   -0.000198|    0.002809|  5.0000e+02|   -8.628288|
|         677|  5.3158e-03|  -12.657051|  -12.610753|   -0.000198|    0.002809|  5.0000e+02|   -8.634427|
|         678|  5.3159e-03|  -12.663192|  -12.613629|   -0.000198|    0.002809|  5.0000e+02|   -8.640567|
|         679|  5.3159e-03|  -12.669339|  -12.616553|   -0.000198|    0.002809|  5.0000e+02|   -8.646714|
|         680|  5.3157e-03|  -12.675489|  -12.619484|   -0.000198|    0.002809|  5.0000e+02|   -8.652865|
|         681|  5.3158e-03|  -12.681647|  -12.622477|   -0.000198|    0.002809|  5.0000e+02|   -8.659023|
|         682|  5.3156e-03|  -12.687810|  -12.625497|   -0.000198|    0.002809|  5.0000e+02|   -8.665186|
|         683|  5.3159e-03|  -12.693976|  -12.628516|   -0.000198|    0.002809|  5.0000e+02|   -8.671351|
|         684|  5.3162e-03|  -12.700149|  -12.631587|   -0.000198|    0.002809|  5.0000e+02|   -8.677524|
|         685|  5.3164e-03|  -12.706326|  -12.634685|   -0.000198|    0.002809|  5.0000e+02|   -8.683702|
|         686|  5.3165e-03|  -12.712512|  -12.637848|   -0.000198|    0.002809|  5.0000e+02|   -8.689888|
|         687|  5.3168e-03|  -12.718700|  -12.640999|   -0.000198|    0.002809|  5.0000e+02|   -8.696076|
|         688|  5.3167e-03|  -12.724894|  -12.644183|   -0.000198|    0.002809|  5.0000e+02|   -8.702270|
|         689|  5.3169e-03|  -12.731097|  -12.647439|   -0.000198|    0.002809|  5.0000e+02|   -8.708473|
|         690|  5.3169e-03|  -12.737304|  -12.650700|   -0.000198|    0.002809|  5.0000e+02|   -8.714680|
|         691|  5.3167e-03|  -12.743516|  -12.653985|   -0.000198|    0.002809|  5.0000e+02|   -8.720892|
|         692|  5.3167e-03|  -12.749733|  -12.657298|   -0.000198|    0.002809|  5.0000e+02|   -8.727109|
|         693|  5.3170e-03|  -12.755958|  -12.660654|   -0.000198|    0.002809|  5.0000e+02|   -8.733334|
|         694|  5.3168e-03|  -12.762190|  -12.664056|   -0.000198|    0.002809|  5.0000e+02|   -8.739566|
|         695|  5.3168e-03|  -12.768424|  -12.667446|   -0.000198|    0.002809|  5.0000e+02|   -8.745800|
|         696|  5.3168e-03|  -12.774666|  -12.670886|   -0.000198|    0.002809|  5.0000e+02|   -8.752042|
|         697|  5.3167e-03|  -12.780918|  -12.674384|   -0.000198|    0.002809|  5.0000e+02|   -8.758293|
|         698|  5.3168e-03|  -12.787170|  -12.677870|   -0.000198|    0.002809|  5.0000e+02|   -8.764546|
|         699|  5.3166e-03|  -12.793430|  -12.681383|   -0.000198|    0.002809|  5.0000e+02|   -8.770806|
|         700|  5.3165e-03|  -12.799698|  -12.684955|   -0.000198|    0.002809|  5.0000e+02|   -8.777074|
|         701|  5.3165e-03|  -12.805973|  -12.688545|   -0.000198|    0.002809|  5.0000e+02|   -8.783348|
|         702|  5.3168e-03|  -12.812253|  -12.692166|   -0.000198|    0.002809|  5.0000e+02|   -8.789628|
|         703|  5.3166e-03|  -12.818543|  -12.695841|   -0.000198|    0.002809|  5.0000e+02|   -8.795919|
|         704|  5.3168e-03|  -12.824836|  -12.699521|   -0.000198|    0.002809|  5.0000e+02|   -8.802212|
|         705|  5.3165e-03|  -12.831133|  -12.703195|   -0.000198|    0.002809|  5.0000e+02|   -8.808509|
|         706|  5.3165e-03|  -12.837445|  -12.706966|   -0.000198|    0.002809|  5.0000e+02|   -8.814820|
|         707|  5.3164e-03|  -12.843757|  -12.710720|   -0.000198|    0.002809|  5.0000e+02|   -8.821133|
|         708|  5.3165e-03|  -12.850078|  -12.714518|   -0.000198|    0.002809|  5.0000e+02|   -8.827453|
|         709|  5.3163e-03|  -12.856408|  -12.718361|   -0.000198|    0.002809|  5.0000e+02|   -8.833784|
|         710|  5.3165e-03|  -12.862742|  -12.722203|   -0.000198|    0.002809|  5.0000e+02|   -8.840117|
|         711|  5.3162e-03|  -12.869086|  -12.726104|   -0.000198|    0.002809|  5.0000e+02|   -8.846462|
|         712|  5.3167e-03|  -12.875433|  -12.729999|   -0.000198|    0.002809|  5.0000e+02|   -8.852808|
|         713|  5.3168e-03|  -12.881791|  -12.733945|   -0.000198|    0.002809|  5.0000e+02|   -8.859166|
|         714|  5.3169e-03|  -12.888151|  -12.737896|   -0.000198|    0.002809|  5.0000e+02|   -8.865527|
|         715|  5.3170e-03|  -12.894521|  -12.741874|   -0.000198|    0.002809|  5.0000e+02|   -8.871896|
|         716|  5.3168e-03|  -12.900904|  -12.745933|   -0.000198|    0.002809|  5.0000e+02|   -8.878279|
|         717|  5.3170e-03|  -12.907289|  -12.749986|   -0.000198|    0.002809|  5.0000e+02|   -8.884665|
|         718|  5.3169e-03|  -12.913685|  -12.754075|   -0.000198|    0.002809|  5.0000e+02|   -8.891060|
|         719|  5.3171e-03|  -12.920080|  -12.758149|   -0.000198|    0.002809|  5.0000e+02|   -8.897456|
|         720|  5.3169e-03|  -12.926491|  -12.762300|   -0.000198|    0.002809|  5.0000e+02|   -8.903867|
|         721|  5.3173e-03|  -12.932910|  -12.766482|   -0.000198|    0.002809|  5.0000e+02|   -8.910286|
|         722|  5.3171e-03|  -12.939333|  -12.770669|   -0.000198|    0.002809|  5.0000e+02|   -8.916709|
|         723|  5.3172e-03|  -12.945761|  -12.774851|   -0.000198|    0.002809|  5.0000e+02|   -8.923136|
|         724|  5.3171e-03|  -12.952211|  -12.779174|   -0.000198|    0.002809|  5.0000e+02|   -8.929587|
|         725|  5.3171e-03|  -12.958647|  -12.783367|   -0.000198|    0.002809|  5.0000e+02|   -8.936023|
|         726|  5.3169e-03|  -12.965110|  -12.787712|   -0.000198|    0.002809|  5.0000e+02|   -8.942486|
|         727|  5.3170e-03|  -12.971570|  -12.792018|   -0.000198|    0.002809|  5.0000e+02|   -8.948946|
|         728|  5.3167e-03|  -12.978045|  -12.796392|   -0.000198|    0.002809|  5.0000e+02|   -8.955420|
|         729|  5.3167e-03|  -12.984526|  -12.800777|   -0.000198|    0.002809|  5.0000e+02|   -8.961901|
|         730|  5.3166e-03|  -12.991011|  -12.805159|   -0.000198|    0.002809|  5.0000e+02|   -8.968386|
|         731|  5.3168e-03|  -12.997509|  -12.809608|   -0.000198|    0.002809|  5.0000e+02|   -8.974884|
|         732|  5.3170e-03|  -13.004004|  -12.814013|   -0.000198|    0.002809|  5.0000e+02|   -8.981380|

----------------------------- Solver Exit -------------------------------
All convergence criteria satisfied.
+-----------------------------------------------------------------------+
|      Convergence Field     |     Value    |   Criterion  |  Converged |
+-----------------------------------------------------------------------+
|                    rms[Rho]|       -13.004|         < -13|         Yes|
+-----------------------------------------------------------------------+
-------------------------------------------------------------------------
+-----------------------------------------------------------------------+
|        File Writing Summary       |              Filename             |
+-----------------------------------------------------------------------+
|SU2 restart                        |restart.dat                        |
|                                   |                     (676.302 MB/s)|
|Paraview                           |vol_solution.vtu                   |
|                                   |                     (207.651 MB/s)|
|Paraview surface                   |surface.vtu                        |
|                                   |                     (12.0852 MB/s)|
+-----------------------------------------------------------------------+

Writing the forces breakdown file (forces_breakdown.dat).

------------------------- Solver Postprocessing -------------------------
Deleted CNumerics container.
Deleted CIntegration container.
Deleted CSolver container.
Deleted CIteration container.
Deleted CInterface container.
Deleted CGeometry container.
Deleted CFreeFormDefBox class.
Deleted CSurfaceMovement class.
Deleted CVolumetricMovement class.
Deleted CConfig container.
Deleted nInst container.
Deleted COutput class.
-------------------------------------------------------------------------


-------------------------- Performance Summary --------------------------
Simulation totals:
   Wall-clock time (hrs):  0.00109088 |            Core-hrs:  0.00109088
                   Cores:           1 |          DOFs/point:           5
             Points/core:         875 |   Ghost points/core:           0
 Ghost/Owned Point Ratio:           0 | 

Preprocessing phase:
       Preproc. Time (s):   0.0251987 |   Preproc. Time (%):    0.641652

Compute phase:
        Compute Time (s):     3.89878 |    Compute Time (%):     99.2774
         Iteration count:         733 |         Avg. s/iter:  0.00531893
     Core-s/iter/Mpoints:     6.07878 |           Mpoints/s:    0.164507

Output phase:
         Output Time (s):  0.00317978 |     Output Time (%):   0.0809691
            Output count:           1 |       Avg. s/output:  0.00317978
 Restart Aggr. BW (MB/s):     1849.68 |           MB/s/core:     1849.68
-------------------------------------------------------------------------


------------------------- Exit Success (SU2_CFD) ------------------------

Invalid MIT-MAGIC-COOKIE-1 key